** CalculiX input file generato da SectionCHECK
** Elemento: Pilastro_Circolare_D500
** Nodi: 11209  Elementi: 10960
**
*NODE, NSET=NALL
1, 0.00000000e+00, 0.00000000e+00, 0.00000000e+00
2, 5.00000000e-02, 0.00000000e+00, 0.00000000e+00
3, 4.90392640e-02, 9.75451610e-03, 0.00000000e+00
4, 4.61939766e-02, 1.91341716e-02, 0.00000000e+00
5, 4.15734806e-02, 2.77785117e-02, 0.00000000e+00
6, 3.53553391e-02, 3.53553391e-02, 0.00000000e+00
7, 2.77785117e-02, 4.15734806e-02, 0.00000000e+00
8, 1.91341716e-02, 4.61939766e-02, 0.00000000e+00
9, 9.75451610e-03, 4.90392640e-02, 0.00000000e+00
10, 3.06161700e-18, 5.00000000e-02, 0.00000000e+00
11, -9.75451610e-03, 4.90392640e-02, 0.00000000e+00
12, -1.91341716e-02, 4.61939766e-02, 0.00000000e+00
13, -2.77785117e-02, 4.15734806e-02, 0.00000000e+00
14, -3.53553391e-02, 3.53553391e-02, 0.00000000e+00
15, -4.15734806e-02, 2.77785117e-02, 0.00000000e+00
16, -4.61939766e-02, 1.91341716e-02, 0.00000000e+00
17, -4.90392640e-02, 9.75451610e-03, 0.00000000e+00
18, -5.00000000e-02, 6.12323400e-18, 0.00000000e+00
19, -4.90392640e-02, -9.75451610e-03, 0.00000000e+00
20, -4.61939766e-02, -1.91341716e-02, 0.00000000e+00
** ... 11189 like lines cut
*ELEMENT, TYPE=C3D8, ELSET=EALL_HEX
1, 1, 2, 3, 1, 162, 163, 164, 162
2, 1, 3, 4, 1, 162, 164, 165, 162
3, 1, 4, 5, 1, 162, 165, 166, 162
4, 1, 5, 6, 1, 162, 166, 167, 162
5, 1, 6, 7, 1, 162, 167, 168, 162
6, 1, 7, 8, 1, 162, 168, 169, 162
7, 1, 8, 9, 1, 162, 169, 170, 162
8, 1, 9, 10, 1, 162, 170, 171, 162
9, 1, 10, 11, 1, 162, 171, 172, 162
10, 1, 11, 12, 1, 162, 172, 173, 162
11, 1, 12, 13, 1, 162, 173, 174, 162
12, 1, 13, 14, 1, 162, 174, 175, 162
13, 1, 14, 15, 1, 162, 175, 176, 162
14, 1, 15, 16, 1, 162, 176, 177, 162
15, 1, 16, 17, 1, 162, 177, 178, 162
16, 1, 17, 18, 1, 162, 178, 179, 162
17, 1, 18, 19, 1, 162, 179, 180, 162
18, 1, 19, 20, 1, 162, 180, 181, 162
19, 1, 20, 21, 1, 162, 181, 182, 162
20, 1, 21, 22, 1, 162, 182, 183, 162
** ... 9580 like lines cut
*ELEMENT, TYPE=T3D2, ELSET=EALL_TRUSS
9601, 9822, 9823
9602, 9823, 9824
9603, 9824, 9825
9604, 9825, 9826
9605, 9826, 9827
9606, 9827, 9828
9607, 9828, 9829
9608, 9829, 9830
9609, 9830, 9831
9610, 9831, 9832
9611, 9832, 9833
9612, 9833, 9834
9613, 9834, 9835
9614, 9835, 9836
9615, 9836, 9837
9616, 9837, 9838
9617, 9838, 9839
9618, 9839, 9840
9619, 9840, 9841
9620, 9841, 9842
** ... 1340 like lines cut
*NSET, NSET=N_OBJ_112_CARPENTERIA
1, 2, 3, 4, 5, 6, 7, 8, 9, 10, 11, 12, 13, 14, 15, 16,
17, 18, 19, 20, 21, 22, 23, 24, 25, 26, 27, 28, 29, 30, 31, 32,
33, 34, 35, 36, 37, 38, 39, 40, 41, 42, 43, 44, 45, 46, 47, 48,
49, 50, 51, 52, 53, 54, 55, 56, 57, 58, 59, 60, 61, 62, 63, 64,
65, 66, 67, 68, 69, 70, 71, 72, 73, 74, 75, 76, 77, 78, 79, 80,
81, 82, 83, 84, 85, 86, 87, 88, 89, 90, 91, 92, 93, 94, 95, 96,
97, 98, 99, 100, 101, 102, 103, 104, 105, 106, 107, 108, 109, 110, 111, 112,
113, 114, 115, 116, 117, 118, 119, 120, 121, 122, 123, 124, 125, 126, 127, 128,
129, 130, 131, 132, 133, 134, 135, 136, 137, 138, 139, 140, 141, 142, 143, 144,
145, 146, 147, 148, 149, 150, 151, 152, 153, 154, 155, 156, 157, 158, 159, 160,
161, 162, 163, 164, 165, 166, 167, 168, 169, 170, 171, 172, 173, 174, 175, 176,
177, 178, 179, 180, 181, 182, 183, 184, 185, 186, 187, 188, 189, 190, 191, 192,
193, 194, 195, 196, 197, 198, 199, 200, 201, 202, 203, 204, 205, 206, 207, 208,
209, 210, 211, 212, 213, 214, 215, 216, 217, 218, 219, 220, 221, 222, 223, 224,
225, 226, 227, 228, 229, 230, 231, 232, 233, 234, 235, 236, 237, 238, 239, 240,
241, 242, 243, 244, 245, 246, 247, 248, 249, 250, 251, 252, 253, 254, 255, 256,
257, 258, 259, 260, 261, 262, 263, 264, 265, 266, 267, 268, 269, 270, 271, 272,
273, 274, 275, 276, 277, 278, 279, 280, 281, 282, 283, 284, 285, 286, 287, 288,
289, 290, 291, 292, 293, 294, 295, 296, 297, 298, 299, 300, 301, 302, 303, 304,
305, 306, 307, 308, 309, 310, 311, 312, 313, 314, 315, 316, 317, 318, 319, 320,
** ... 594 like lines cut
*ELSET, ELSET=E_OBJ_112_CARPENTERIA
1, 2, 3, 4, 5, 6, 7, 8, 9, 10, 11, 12, 13, 14, 15, 16,
17, 18, 19, 20, 21, 22, 23, 24, 25, 26, 27, 28, 29, 30, 31, 32,
33, 34, 35, 36, 37, 38, 39, 40, 41, 42, 43, 44, 45, 46, 47, 48,
49, 50, 51, 52, 53, 54, 55, 56, 57, 58, 59, 60, 61, 62, 63, 64,
65, 66, 67, 68, 69, 70, 71, 72, 73, 74, 75, 76, 77, 78, 79, 80,
81, 82, 83, 84, 85, 86, 87, 88, 89, 90, 91, 92, 93, 94, 95, 96,
97, 98, 99, 100, 101, 102, 103, 104, 105, 106, 107, 108, 109, 110, 111, 112,
113, 114, 115, 116, 117, 118, 119, 120, 121, 122, 123, 124, 125, 126, 127, 128,
129, 130, 131, 132, 133, 134, 135, 136, 137, 138, 139, 140, 141, 142, 143, 144,
145, 146, 147, 148, 149, 150, 151, 152, 153, 154, 155, 156, 157, 158, 159, 160,
161, 162, 163, 164, 165, 166, 167, 168, 169, 170, 171, 172, 173, 174, 175, 176,
177, 178, 179, 180, 181, 182, 183, 184, 185, 186, 187, 188, 189, 190, 191, 192,
193, 194, 195, 196, 197, 198, 199, 200, 201, 202, 203, 204, 205, 206, 207, 208,
209, 210, 211, 212, 213, 214, 215, 216, 217, 218, 219, 220, 221, 222, 223, 224,
225, 226, 227, 228, 229, 230, 231, 232, 233, 234, 235, 236, 237, 238, 239, 240,
241, 242, 243, 244, 245, 246, 247, 248, 249, 250, 251, 252, 253, 254, 255, 256,
257, 258, 259, 260, 261, 262, 263, 264, 265, 266, 267, 268, 269, 270, 271, 272,
273, 274, 275, 276, 277, 278, 279, 280, 281, 282, 283, 284, 285, 286, 287, 288,
289, 290, 291, 292, 293, 294, 295, 296, 297, 298, 299, 300, 301, 302, 303, 304,
305, 306, 307, 308, 309, 310, 311, 312, 313, 314, 315, 316, 317, 318, 319, 320,
** ... 580 like lines cut
*NSET, NSET=N_OBJ_133_BARRA
9822, 9823, 9824, 9825, 9826, 9827, 9828, 9829, 9830, 9831, 9832, 9833, 9834, 9835, 9836, 9837,
9838, 9839, 9840, 9841, 9842, 9843, 9844, 9845, 9846, 9847, 9848, 9849, 9850, 9851, 9852, 9853,
9854, 9855, 9856, 9857, 9858, 9859, 9860, 9861, 9862, 9863, 9864, 9865, 9866, 9867, 9868, 9869,
9870, 9871, 9872
*ELSET, ELSET=E_OBJ_133_BARRA
9601, 9602, 9603, 9604, 9605, 9606, 9607, 9608, 9609, 9610, 9611, 9612, 9613, 9614, 9615, 9616,
9617, 9618, 9619, 9620, 9621, 9622, 9623, 9624, 9625, 9626, 9627, 9628, 9629, 9630, 9631, 9632,
9633, 9634, 9635, 9636, 9637, 9638, 9639, 9640, 9641, 9642, 9643, 9644, 9645, 9646, 9647, 9648,
9649, 9650
*NSET, NSET=N_OBJ_134_BARRA
9873, 9874, 9875, 9876, 9877, 9878, 9879, 9880, 9881, 9882, 9883, 9884, 9885, 9886, 9887, 9888,
9889, 9890, 9891, 9892, 9893, 9894, 9895, 9896, 9897, 9898, 9899, 9900, 9901, 9902, 9903, 9904,
9905, 9906, 9907, 9908, 9909, 9910, 9911, 9912, 9913, 9914, 9915, 9916, 9917, 9918, 9919, 9920,
9921, 9922, 9923
*ELSET, ELSET=E_OBJ_134_BARRA
9651, 9652, 9653, 9654, 9655, 9656, 9657, 9658, 9659, 9660, 9661, 9662, 9663, 9664, 9665, 9666,
9667, 9668, 9669, 9670, 9671, 9672, 9673, 9674, 9675, 9676, 9677, 9678, 9679, 9680, 9681, 9682,
9683, 9684, 9685, 9686, 9687, 9688, 9689, 9690, 9691, 9692, 9693, 9694, 9695, 9696, 9697, 9698,
9699, 9700
*NSET, NSET=N_OBJ_135_BARRA
9924, 9925, 9926, 9927, 9928, 9929, 9930, 9931, 9932, 9933, 9934, 9935, 9936, 9937, 9938, 9939,
9940, 9941, 9942, 9943, 9944, 9945, 9946, 9947, 9948, 9949, 9950, 9951, 9952, 9953, 9954, 9955,
9956, 9957, 9958, 9959, 9960, 9961, 9962, 9963, 9964, 9965, 9966, 9967, 9968, 9969, 9970, 9971,
9972, 9973, 9974
*ELSET, ELSET=E_OBJ_135_BARRA
9701, 9702, 9703, 9704, 9705, 9706, 9707, 9708, 9709, 9710, 9711, 9712, 9713, 9714, 9715, 9716,
9717, 9718, 9719, 9720, 9721, 9722, 9723, 9724, 9725, 9726, 9727, 9728, 9729, 9730, 9731, 9732,
9733, 9734, 9735, 9736, 9737, 9738, 9739, 9740, 9741, 9742, 9743, 9744, 9745, 9746, 9747, 9748,
9749, 9750
*NSET, NSET=N_OBJ_136_BARRA
9975, 9976, 9977, 9978, 9979, 9980, 9981, 9982, 9983, 9984, 9985, 9986, 9987, 9988, 9989, 9990,
9991, 9992, 9993, 9994, 9995, 9996, 9997, 9998, 9999, 10000, 10001, 10002, 10003, 10004, 10005, 10006,
10007, 10008, 10009, 10010, 10011, 10012, 10013, 10014, 10015, 10016, 10017, 10018, 10019, 10020, 10021, 10022,
10023, 10024, 10025
*ELSET, ELSET=E_OBJ_136_BARRA
9751, 9752, 9753, 9754, 9755, 9756, 9757, 9758, 9759, 9760, 9761, 9762, 9763, 9764, 9765, 9766,
9767, 9768, 9769, 9770, 9771, 9772, 9773, 9774, 9775, 9776, 9777, 9778, 9779, 9780, 9781, 9782,
9783, 9784, 9785, 9786, 9787, 9788, 9789, 9790, 9791, 9792, 9793, 9794, 9795, 9796, 9797, 9798,
9799, 9800
*NSET, NSET=N_OBJ_137_BARRA
10026, 10027, 10028, 10029, 10030, 10031, 10032, 10033, 10034, 10035, 10036, 10037, 10038, 10039, 10040, 10041,
10042, 10043, 10044, 10045, 10046, 10047, 10048, 10049, 10050, 10051, 10052, 10053, 10054, 10055, 10056, 10057,
10058, 10059, 10060, 10061, 10062, 10063, 10064, 10065, 10066, 10067, 10068, 10069, 10070, 10071, 10072, 10073,
10074, 10075, 10076
*ELSET, ELSET=E_OBJ_137_BARRA
9801, 9802, 9803, 9804, 9805, 9806, 9807, 9808, 9809, 9810, 9811, 9812, 9813, 9814, 9815, 9816,
9817, 9818, 9819, 9820, 9821, 9822, 9823, 9824, 9825, 9826, 9827, 9828, 9829, 9830, 9831, 9832,
9833, 9834, 9835, 9836, 9837, 9838, 9839, 9840, 9841, 9842, 9843, 9844, 9845, 9846, 9847, 9848,
9849, 9850
*NSET, NSET=N_OBJ_138_BARRA
10077, 10078, 10079, 10080, 10081, 10082, 10083, 10084, 10085, 10086, 10087, 10088, 10089, 10090, 10091, 10092,
10093, 10094, 10095, 10096, 10097, 10098, 10099, 10100, 10101, 10102, 10103, 10104, 10105, 10106, 10107, 10108,
10109, 10110, 10111, 10112, 10113, 10114, 10115, 10116, 10117, 10118, 10119, 10120, 10121, 10122, 10123, 10124,
10125, 10126, 10127
*ELSET, ELSET=E_OBJ_138_BARRA
9851, 9852, 9853, 9854, 9855, 9856, 9857, 9858, 9859, 9860, 9861, 9862, 9863, 9864, 9865, 9866,
9867, 9868, 9869, 9870, 9871, 9872, 9873, 9874, 9875, 9876, 9877, 9878, 9879, 9880, 9881, 9882,
9883, 9884, 9885, 9886, 9887, 9888, 9889, 9890, 9891, 9892, 9893, 9894, 9895, 9896, 9897, 9898,
9899, 9900
*NSET, NSET=N_OBJ_139_BARRA
10128, 10129, 10130, 10131, 10132, 10133, 10134, 10135, 10136, 10137, 10138, 10139, 10140, 10141, 10142, 10143,
10144, 10145, 10146, 10147, 10148, 10149, 10150, 10151, 10152, 10153, 10154, 10155, 10156, 10157, 10158, 10159,
10160, 10161, 10162, 10163, 10164, 10165, 10166, 10167, 10168, 10169, 10170, 10171, 10172, 10173, 10174, 10175,
10176, 10177, 10178
*ELSET, ELSET=E_OBJ_139_BARRA
9901, 9902, 9903, 9904, 9905, 9906, 9907, 9908, 9909, 9910, 9911, 9912, 9913, 9914, 9915, 9916,
9917, 9918, 9919, 9920, 9921, 9922, 9923, 9924, 9925, 9926, 9927, 9928, 9929, 9930, 9931, 9932,
9933, 9934, 9935, 9936, 9937, 9938, 9939, 9940, 9941, 9942, 9943, 9944, 9945, 9946, 9947, 9948,
9949, 9950
*NSET, NSET=N_OBJ_140_BARRA
10179, 10180, 10181, 10182, 10183, 10184, 10185, 10186, 10187, 10188, 10189, 10190, 10191, 10192, 10193, 10194,
10195, 10196, 10197, 10198, 10199, 10200, 10201, 10202, 10203, 10204, 10205, 10206, 10207, 10208, 10209, 10210,
10211, 10212, 10213, 10214, 10215, 10216, 10217, 10218, 10219, 10220, 10221, 10222, 10223, 10224, 10225, 10226,
10227, 10228, 10229
*ELSET, ELSET=E_OBJ_140_BARRA
9951, 9952, 9953, 9954, 9955, 9956, 9957, 9958, 9959, 9960, 9961, 9962, 9963, 9964, 9965, 9966,
9967, 9968, 9969, 9970, 9971, 9972, 9973, 9974, 9975, 9976, 9977, 9978, 9979, 9980, 9981, 9982,
9983, 9984, 9985, 9986, 9987, 9988, 9989, 9990, 9991, 9992, 9993, 9994, 9995, 9996, 9997, 9998,
9999, 10000
*NSET, NSET=N_OBJ_113_STAFFA
10230, 10231, 10232, 10233, 10234, 10235, 10236, 10237, 10238, 10239, 10240, 10241, 10242, 10243, 10244, 10245,
10246, 10247, 10248, 10249, 10250, 10251, 10252, 10253, 10254, 10255, 10256, 10257, 10258, 10259, 10260, 10261,
10262, 10263, 10264, 10265, 10266, 10267, 10268, 10269, 10270, 10271, 10272, 10273, 10274, 10275, 10276, 10277,
10278
*ELSET, ELSET=E_OBJ_113_STAFFA
10001, 10002, 10003, 10004, 10005, 10006, 10007, 10008, 10009, 10010, 10011, 10012, 10013, 10014, 10015, 10016,
10017, 10018, 10019, 10020, 10021, 10022, 10023, 10024, 10025, 10026, 10027, 10028, 10029, 10030, 10031, 10032,
10033, 10034, 10035, 10036, 10037, 10038, 10039, 10040, 10041, 10042, 10043, 10044, 10045, 10046, 10047, 10048
*NSET, NSET=N_OBJ_114_STAFFA
10279, 10280, 10281, 10282, 10283, 10284, 10285, 10286, 10287, 10288, 10289, 10290, 10291, 10292, 10293, 10294,
10295, 10296, 10297, 10298, 10299, 10300, 10301, 10302, 10303, 10304, 10305, 10306, 10307, 10308, 10309, 10310,
10311, 10312, 10313, 10314, 10315, 10316, 10317, 10318, 10319, 10320, 10321, 10322, 10323, 10324, 10325, 10326,
10327
*ELSET, ELSET=E_OBJ_114_STAFFA
10049, 10050, 10051, 10052, 10053, 10054, 10055, 10056, 10057, 10058, 10059, 10060, 10061, 10062, 10063, 10064,
10065, 10066, 10067, 10068, 10069, 10070, 10071, 10072, 10073, 10074, 10075, 10076, 10077, 10078, 10079, 10080,
10081, 10082, 10083, 10084, 10085, 10086, 10087, 10088, 10089, 10090, 10091, 10092, 10093, 10094, 10095, 10096
*NSET, NSET=N_OBJ_115_STAFFA
10328, 10329, 10330, 10331, 10332, 10333, 10334, 10335, 10336, 10337, 10338, 10339, 10340, 10341, 10342, 10343,
10344, 10345, 10346, 10347, 10348, 10349, 10350, 10351, 10352, 10353, 10354, 10355, 10356, 10357, 10358, 10359,
10360, 10361, 10362, 10363, 10364, 10365, 10366, 10367, 10368, 10369, 10370, 10371, 10372, 10373, 10374, 10375,
10376
*ELSET, ELSET=E_OBJ_115_STAFFA
10097, 10098, 10099, 10100, 10101, 10102, 10103, 10104, 10105, 10106, 10107, 10108, 10109, 10110, 10111, 10112,
10113, 10114, 10115, 10116, 10117, 10118, 10119, 10120, 10121, 10122, 10123, 10124, 10125, 10126, 10127, 10128,
10129, 10130, 10131, 10132, 10133, 10134, 10135, 10136, 10137, 10138, 10139, 10140, 10141, 10142, 10143, 10144
*NSET, NSET=N_OBJ_116_STAFFA
10377, 10378, 10379, 10380, 10381, 10382, 10383, 10384, 10385, 10386, 10387, 10388, 10389, 10390, 10391, 10392,
10393, 10394, 10395, 10396, 10397, 10398, 10399, 10400, 10401, 10402, 10403, 10404, 10405, 10406, 10407, 10408,
10409, 10410, 10411, 10412, 10413, 10414, 10415, 10416, 10417, 10418, 10419, 10420, 10421, 10422, 10423, 10424,
10425
*ELSET, ELSET=E_OBJ_116_STAFFA
10145, 10146, 10147, 10148, 10149, 10150, 10151, 10152, 10153, 10154, 10155, 10156, 10157, 10158, 10159, 10160,
10161, 10162, 10163, 10164, 10165, 10166, 10167, 10168, 10169, 10170, 10171, 10172, 10173, 10174, 10175, 10176,
10177, 10178, 10179, 10180, 10181, 10182, 10183, 10184, 10185, 10186, 10187, 10188, 10189, 10190, 10191, 10192
*NSET, NSET=N_OBJ_117_STAFFA
10426, 10427, 10428, 10429, 10430, 10431, 10432, 10433, 10434, 10435, 10436, 10437, 10438, 10439, 10440, 10441,
10442, 10443, 10444, 10445, 10446, 10447, 10448, 10449, 10450, 10451, 10452, 10453, 10454, 10455, 10456, 10457,
10458, 10459, 10460, 10461, 10462, 10463, 10464, 10465, 10466, 10467, 10468, 10469, 10470, 10471, 10472, 10473,
10474
*ELSET, ELSET=E_OBJ_117_STAFFA
10193, 10194, 10195, 10196, 10197, 10198, 10199, 10200, 10201, 10202, 10203, 10204, 10205, 10206, 10207, 10208,
10209, 10210, 10211, 10212, 10213, 10214, 10215, 10216, 10217, 10218, 10219, 10220, 10221, 10222, 10223, 10224,
10225, 10226, 10227, 10228, 10229, 10230, 10231, 10232, 10233, 10234, 10235, 10236, 10237, 10238, 10239, 10240
*NSET, NSET=N_OBJ_118_STAFFA
10475, 10476, 10477, 10478, 10479, 10480, 10481, 10482, 10483, 10484, 10485, 10486, 10487, 10488, 10489, 10490,
10491, 10492, 10493, 10494, 10495, 10496, 10497, 10498, 10499, 10500, 10501, 10502, 10503, 10504, 10505, 10506,
10507, 10508, 10509, 10510, 10511, 10512, 10513, 10514, 10515, 10516, 10517, 10518, 10519, 10520, 10521, 10522,
10523
*ELSET, ELSET=E_OBJ_118_STAFFA
10241, 10242, 10243, 10244, 10245, 10246, 10247, 10248, 10249, 10250, 10251, 10252, 10253, 10254, 10255, 10256,
10257, 10258, 10259, 10260, 10261, 10262, 10263, 10264, 10265, 10266, 10267, 10268, 10269, 10270, 10271, 10272,
10273, 10274, 10275, 10276, 10277, 10278, 10279, 10280, 10281, 10282, 10283, 10284, 10285, 10286, 10287, 10288
*NSET, NSET=N_OBJ_119_STAFFA
10524, 10525, 10526, 10527, 10528, 10529, 10530, 10531, 10532, 10533, 10534, 10535, 10536, 10537, 10538, 10539,
10540, 10541, 10542, 10543, 10544, 10545, 10546, 10547, 10548, 10549, 10550, 10551, 10552, 10553, 10554, 10555,
10556, 10557, 10558, 10559, 10560, 10561, 10562, 10563, 10564, 10565, 10566, 10567, 10568, 10569, 10570, 10571,
10572
*ELSET, ELSET=E_OBJ_119_STAFFA
10289, 10290, 10291, 10292, 10293, 10294, 10295, 10296, 10297, 10298, 10299, 10300, 10301, 10302, 10303, 10304,
10305, 10306, 10307, 10308, 10309, 10310, 10311, 10312, 10313, 10314, 10315, 10316, 10317, 10318, 10319, 10320,
10321, 10322, 10323, 10324, 10325, 10326, 10327, 10328, 10329, 10330, 10331, 10332, 10333, 10334, 10335, 10336
*NSET, NSET=N_OBJ_120_STAFFA
10573, 10574, 10575, 10576, 10577, 10578, 10579, 10580, 10581, 10582, 10583, 10584, 10585, 10586, 10587, 10588,
10589, 10590, 10591, 10592, 10593, 10594, 10595, 10596, 10597, 10598, 10599, 10600, 10601, 10602, 10603, 10604,
10605, 10606, 10607, 10608, 10609, 10610, 10611, 10612, 10613, 10614, 10615, 10616, 10617, 10618, 10619, 10620,
10621
*ELSET, ELSET=E_OBJ_120_STAFFA
10337, 10338, 10339, 10340, 10341, 10342, 10343, 10344, 10345, 10346, 10347, 10348, 10349, 10350, 10351, 10352,
10353, 10354, 10355, 10356, 10357, 10358, 10359, 10360, 10361, 10362, 10363, 10364, 10365, 10366, 10367, 10368,
10369, 10370, 10371, 10372, 10373, 10374, 10375, 10376, 10377, 10378, 10379, 10380, 10381, 10382, 10383, 10384
*NSET, NSET=N_OBJ_121_STAFFA
10622, 10623, 10624, 10625, 10626, 10627, 10628, 10629, 10630, 10631, 10632, 10633, 10634, 10635, 10636, 10637,
10638, 10639, 10640, 10641, 10642, 10643, 10644, 10645, 10646, 10647, 10648, 10649, 10650, 10651, 10652, 10653,
10654, 10655, 10656, 10657, 10658, 10659, 10660, 10661, 10662, 10663, 10664, 10665, 10666, 10667, 10668, 10669,
10670
*ELSET, ELSET=E_OBJ_121_STAFFA
10385, 10386, 10387, 10388, 10389, 10390, 10391, 10392, 10393, 10394, 10395, 10396, 10397, 10398, 10399, 10400,
10401, 10402, 10403, 10404, 10405, 10406, 10407, 10408, 10409, 10410, 10411, 10412, 10413, 10414, 10415, 10416,
10417, 10418, 10419, 10420, 10421, 10422, 10423, 10424, 10425, 10426, 10427, 10428, 10429, 10430, 10431, 10432
*NSET, NSET=N_OBJ_122_STAFFA
10671, 10672, 10673, 10674, 10675, 10676, 10677, 10678, 10679, 10680, 10681, 10682, 10683, 10684, 10685, 10686,
10687, 10688, 10689, 10690, 10691, 10692, 10693, 10694, 10695, 10696, 10697, 10698, 10699, 10700, 10701, 10702,
10703, 10704, 10705, 10706, 10707, 10708, 10709, 10710, 10711, 10712, 10713, 10714, 10715, 10716, 10717, 10718,
10719
*ELSET, ELSET=E_OBJ_122_STAFFA
10433, 10434, 10435, 10436, 10437, 10438, 10439, 10440, 10441, 10442, 10443, 10444, 10445, 10446, 10447, 10448,
10449, 10450, 10451, 10452, 10453, 10454, 10455, 10456, 10457, 10458, 10459, 10460, 10461, 10462, 10463, 10464,
10465, 10466, 10467, 10468, 10469, 10470, 10471, 10472, 10473, 10474, 10475, 10476, 10477, 10478, 10479, 10480
*NSET, NSET=N_OBJ_123_STAFFA
10720, 10721, 10722, 10723, 10724, 10725, 10726, 10727, 10728, 10729, 10730, 10731, 10732, 10733, 10734, 10735,
10736, 10737, 10738, 10739, 10740, 10741, 10742, 10743, 10744, 10745, 10746, 10747, 10748, 10749, 10750, 10751,
10752, 10753, 10754, 10755, 10756, 10757, 10758, 10759, 10760, 10761, 10762, 10763, 10764, 10765, 10766, 10767,
10768
*ELSET, ELSET=E_OBJ_123_STAFFA
10481, 10482, 10483, 10484, 10485, 10486, 10487, 10488, 10489, 10490, 10491, 10492, 10493, 10494, 10495, 10496,
10497, 10498, 10499, 10500, 10501, 10502, 10503, 10504, 10505, 10506, 10507, 10508, 10509, 10510, 10511, 10512,
10513, 10514, 10515, 10516, 10517, 10518, 10519, 10520, 10521, 10522, 10523, 10524, 10525, 10526, 10527, 10528
*NSET, NSET=N_OBJ_124_STAFFA
10769, 10770, 10771, 10772, 10773, 10774, 10775, 10776, 10777, 10778, 10779, 10780, 10781, 10782, 10783, 10784,
10785, 10786, 10787, 10788, 10789, 10790, 10791, 10792, 10793, 10794, 10795, 10796, 10797, 10798, 10799, 10800,
10801, 10802, 10803, 10804, 10805, 10806, 10807, 10808, 10809, 10810, 10811, 10812, 10813, 10814, 10815, 10816,
10817
*ELSET, ELSET=E_OBJ_124_STAFFA
10529, 10530, 10531, 10532, 10533, 10534, 10535, 10536, 10537, 10538, 10539, 10540, 10541, 10542, 10543, 10544,
10545, 10546, 10547, 10548, 10549, 10550, 10551, 10552, 10553, 10554, 10555, 10556, 10557, 10558, 10559, 10560,
10561, 10562, 10563, 10564, 10565, 10566, 10567, 10568, 10569, 10570, 10571, 10572, 10573, 10574, 10575, 10576
*NSET, NSET=N_OBJ_125_STAFFA
10818, 10819, 10820, 10821, 10822, 10823, 10824, 10825, 10826, 10827, 10828, 10829, 10830, 10831, 10832, 10833,
10834, 10835, 10836, 10837, 10838, 10839, 10840, 10841, 10842, 10843, 10844, 10845, 10846, 10847, 10848, 10849,
10850, 10851, 10852, 10853, 10854, 10855, 10856, 10857, 10858, 10859, 10860, 10861, 10862, 10863, 10864, 10865,
10866
*ELSET, ELSET=E_OBJ_125_STAFFA
10577, 10578, 10579, 10580, 10581, 10582, 10583, 10584, 10585, 10586, 10587, 10588, 10589, 10590, 10591, 10592,
10593, 10594, 10595, 10596, 10597, 10598, 10599, 10600, 10601, 10602, 10603, 10604, 10605, 10606, 10607, 10608,
10609, 10610, 10611, 10612, 10613, 10614, 10615, 10616, 10617, 10618, 10619, 10620, 10621, 10622, 10623, 10624
*NSET, NSET=N_OBJ_126_STAFFA
10867, 10868, 10869, 10870, 10871, 10872, 10873, 10874, 10875, 10876, 10877, 10878, 10879, 10880, 10881, 10882,
10883, 10884, 10885, 10886, 10887, 10888, 10889, 10890, 10891, 10892, 10893, 10894, 10895, 10896, 10897, 10898,
10899, 10900, 10901, 10902, 10903, 10904, 10905, 10906, 10907, 10908, 10909, 10910, 10911, 10912, 10913, 10914,
10915
*ELSET, ELSET=E_OBJ_126_STAFFA
10625, 10626, 10627, 10628, 10629, 10630, 10631, 10632, 10633, 10634, 10635, 10636, 10637, 10638, 10639, 10640,
10641, 10642, 10643, 10644, 10645, 10646, 10647, 10648, 10649, 10650, 10651, 10652, 10653, 10654, 10655, 10656,
10657, 10658, 10659, 10660, 10661, 10662, 10663, 10664, 10665, 10666, 10667, 10668, 10669, 10670, 10671, 10672
*NSET, NSET=N_OBJ_127_STAFFA
10916, 10917, 10918, 10919, 10920, 10921, 10922, 10923, 10924, 10925, 10926, 10927, 10928, 10929, 10930, 10931,
10932, 10933, 10934, 10935, 10936, 10937, 10938, 10939, 10940, 10941, 10942, 10943, 10944, 10945, 10946, 10947,
10948, 10949, 10950, 10951, 10952, 10953, 10954, 10955, 10956, 10957, 10958, 10959, 10960, 10961, 10962, 10963,
10964
*ELSET, ELSET=E_OBJ_127_STAFFA
10673, 10674, 10675, 10676, 10677, 10678, 10679, 10680, 10681, 10682, 10683, 10684, 10685, 10686, 10687, 10688,
10689, 10690, 10691, 10692, 10693, 10694, 10695, 10696, 10697, 10698, 10699, 10700, 10701, 10702, 10703, 10704,
10705, 10706, 10707, 10708, 10709, 10710, 10711, 10712, 10713, 10714, 10715, 10716, 10717, 10718, 10719, 10720
*NSET, NSET=N_OBJ_128_STAFFA
10965, 10966, 10967, 10968, 10969, 10970, 10971, 10972, 10973, 10974, 10975, 10976, 10977, 10978, 10979, 10980,
10981, 10982, 10983, 10984, 10985, 10986, 10987, 10988, 10989, 10990, 10991, 10992, 10993, 10994, 10995, 10996,
10997, 10998, 10999, 11000, 11001, 11002, 11003, 11004, 11005, 11006, 11007, 11008, 11009, 11010, 11011, 11012,
11013
*ELSET, ELSET=E_OBJ_128_STAFFA
10721, 10722, 10723, 10724, 10725, 10726, 10727, 10728, 10729, 10730, 10731, 10732, 10733, 10734, 10735, 10736,
10737, 10738, 10739, 10740, 10741, 10742, 10743, 10744, 10745, 10746, 10747, 10748, 10749, 10750, 10751, 10752,
10753, 10754, 10755, 10756, 10757, 10758, 10759, 10760, 10761, 10762, 10763, 10764, 10765, 10766, 10767, 10768
*NSET, NSET=N_OBJ_129_STAFFA
11014, 11015, 11016, 11017, 11018, 11019, 11020, 11021, 11022, 11023, 11024, 11025, 11026, 11027, 11028, 11029,
11030, 11031, 11032, 11033, 11034, 11035, 11036, 11037, 11038, 11039, 11040, 11041, 11042, 11043, 11044, 11045,
11046, 11047, 11048, 11049, 11050, 11051, 11052, 11053, 11054, 11055, 11056, 11057, 11058, 11059, 11060, 11061,
11062
*ELSET, ELSET=E_OBJ_129_STAFFA
10769, 10770, 10771, 10772, 10773, 10774, 10775, 10776, 10777, 10778, 10779, 10780, 10781, 10782, 10783, 10784,
10785, 10786, 10787, 10788, 10789, 10790, 10791, 10792, 10793, 10794, 10795, 10796, 10797, 10798, 10799, 10800,
10801, 10802, 10803, 10804, 10805, 10806, 10807, 10808, 10809, 10810, 10811, 10812, 10813, 10814, 10815, 10816
*NSET, NSET=N_OBJ_130_STAFFA
11063, 11064, 11065, 11066, 11067, 11068, 11069, 11070, 11071, 11072, 11073, 11074, 11075, 11076, 11077, 11078,
11079, 11080, 11081, 11082, 11083, 11084, 11085, 11086, 11087, 11088, 11089, 11090, 11091, 11092, 11093, 11094,
11095, 11096, 11097, 11098, 11099, 11100, 11101, 11102, 11103, 11104, 11105, 11106, 11107, 11108, 11109, 11110,
11111
*ELSET, ELSET=E_OBJ_130_STAFFA
10817, 10818, 10819, 10820, 10821, 10822, 10823, 10824, 10825, 10826, 10827, 10828, 10829, 10830, 10831, 10832,
10833, 10834, 10835, 10836, 10837, 10838, 10839, 10840, 10841, 10842, 10843, 10844, 10845, 10846, 10847, 10848,
10849, 10850, 10851, 10852, 10853, 10854, 10855, 10856, 10857, 10858, 10859, 10860, 10861, 10862, 10863, 10864
*NSET, NSET=N_OBJ_131_STAFFA
11112, 11113, 11114, 11115, 11116, 11117, 11118, 11119, 11120, 11121, 11122, 11123, 11124, 11125, 11126, 11127,
11128, 11129, 11130, 11131, 11132, 11133, 11134, 11135, 11136, 11137, 11138, 11139, 11140, 11141, 11142, 11143,
11144, 11145, 11146, 11147, 11148, 11149, 11150, 11151, 11152, 11153, 11154, 11155, 11156, 11157, 11158, 11159,
11160
*ELSET, ELSET=E_OBJ_131_STAFFA
10865, 10866, 10867, 10868, 10869, 10870, 10871, 10872, 10873, 10874, 10875, 10876, 10877, 10878, 10879, 10880,
10881, 10882, 10883, 10884, 10885, 10886, 10887, 10888, 10889, 10890, 10891, 10892, 10893, 10894, 10895, 10896,
10897, 10898, 10899, 10900, 10901, 10902, 10903, 10904, 10905, 10906, 10907, 10908, 10909, 10910, 10911, 10912
*NSET, NSET=N_OBJ_132_STAFFA
11161, 11162, 11163, 11164, 11165, 11166, 11167, 11168, 11169, 11170, 11171, 11172, 11173, 11174, 11175, 11176,
11177, 11178, 11179, 11180, 11181, 11182, 11183, 11184, 11185, 11186, 11187, 11188, 11189, 11190, 11191, 11192,
11193, 11194, 11195, 11196, 11197, 11198, 11199, 11200, 11201, 11202, 11203, 11204, 11205, 11206, 11207, 11208,
11209
*ELSET, ELSET=E_OBJ_132_STAFFA
10913, 10914, 10915, 10916, 10917, 10918, 10919, 10920, 10921, 10922, 10923, 10924, 10925, 10926, 10927, 10928,
10929, 10930, 10931, 10932, 10933, 10934, 10935, 10936, 10937, 10938, 10939, 10940, 10941, 10942, 10943, 10944,
10945, 10946, 10947, 10948, 10949, 10950, 10951, 10952, 10953, 10954, 10955, 10956, 10957, 10958, 10959, 10960
*NSET, NSET=N_VINCOLATI
1, 2, 3, 4, 5, 6, 7, 8, 9, 10, 11, 12, 13, 14, 15, 16,
17, 18, 19, 20, 21, 22, 23, 24, 25, 26, 27, 28, 29, 30, 31, 32,
33, 34, 35, 36, 37, 38, 39, 40, 41, 42, 43, 44, 45, 46, 47, 48,
49, 50, 51, 52, 53, 54, 55, 56, 57, 58, 59, 60, 61, 62, 63, 64,
65, 66, 67, 68, 69, 70, 71, 72, 73, 74, 75, 76, 77, 78, 79, 80,
81, 82, 83, 84, 85, 86, 87, 88, 89, 90, 91, 92, 93, 94, 95, 96,
97, 98, 99, 100, 101, 102, 103, 104, 105, 106, 107, 108, 109, 110, 111, 112,
113, 114, 115, 116, 117, 118, 119, 120, 121, 122, 123, 124, 125, 126, 127, 128,
129, 130, 131, 132, 133, 134, 135, 136, 137, 138, 139, 140, 141, 142, 143, 144,
145, 146, 147, 148, 149, 150, 151, 152, 153, 154, 155, 156, 157, 158, 159, 160,
161, 162, 163, 164, 165, 166, 167, 168, 169, 170, 171, 172, 173, 174, 175, 176,
177, 178, 179, 180, 181, 182, 183, 184, 185, 186, 187, 188, 189, 190, 191, 192,
193, 194, 195, 196, 197, 198, 199, 200, 201, 202, 203, 204, 205, 206, 207, 208,
209, 210, 211, 212, 213, 214, 215, 216, 217, 218, 219, 220, 221, 222, 223, 224,
225, 226, 227, 228, 229, 230, 231, 232, 233, 234, 235, 236, 237, 238, 239, 240,
241, 242, 243, 244, 245, 246, 247, 248, 249, 250, 251, 252, 253, 254, 255, 256,
257, 258, 259, 260, 261, 262, 263, 264, 265, 266, 267, 268, 269, 270, 271, 272,
273, 274, 275, 276, 277, 278, 279, 280, 281, 282, 283, 284, 285, 286, 287, 288,
289, 290, 291, 292, 293, 294, 295, 296, 297, 298, 299, 300, 301, 302, 303, 304,
305, 306, 307, 308, 309, 310, 311, 312, 313, 314, 315, 316, 317, 318, 319, 320,
** ... 15 like lines cut
*NSET, NSET=N_CARICATI
9661, 9662, 9678, 9679, 9680, 9681, 9682, 9683, 9684, 9685, 9686, 9687, 9688, 9689, 9690, 9691,
9692, 9693, 9694, 9710, 9711, 9712, 9713, 9714, 9715, 9716, 9717, 9718, 9719, 9720, 9721, 9722,
9723, 9724, 9725, 9726, 9742, 9743, 9744, 9745, 9746, 9747, 9748, 9749, 9750, 9751, 9752, 9753,
9754, 9755, 9756, 9757, 9758, 9774, 9775, 9776, 9777, 9778, 9779, 9780, 9781, 9782, 9783, 9784,
9785, 9786, 9787, 9788, 9789, 9790, 9806, 9807, 9808, 9809, 9810, 9811, 9812, 9813, 9814, 9815,
9816, 9817, 9818, 9819, 9820, 9821, 9872, 10076, 10127, 10178, 10229
**
*MATERIAL, NAME=MAT_C25_30
*ELASTIC
3.1476e+10, 0.2000
*DENSITY
2.5000e+03
**
*MATERIAL, NAME=MAT_B450C
*ELASTIC
2.0000e+11, 0.3000
*DENSITY
7.8500e+03
**
*MATERIAL, NAME=MAT_DEFAULT
*ELASTIC
3.0000e+10, 0.2000
*SOLID SECTION, ELSET=E_OBJ_112_CARPENTERIA, MATERIAL=MAT_C25_30

*SOLID SECTION, ELSET=E_OBJ_133_BARRA, MATERIAL=MAT_B450C
0.0002010619
*SOLID SECTION, ELSET=E_OBJ_134_BARRA, MATERIAL=MAT_B450C
0.0002010619
*SOLID SECTION, ELSET=E_OBJ_135_BARRA, MATERIAL=MAT_B450C
0.0002010619
*SOLID SECTION, ELSET=E_OBJ_136_BARRA, MATERIAL=MAT_B450C
0.0002010619
*SOLID SECTION, ELSET=E_OBJ_137_BARRA, MATERIAL=MAT_B450C
0.0002010619
*SOLID SECTION, ELSET=E_OBJ_138_BARRA, MATERIAL=MAT_B450C
0.0002010619
*SOLID SECTION, ELSET=E_OBJ_139_BARRA, MATERIAL=MAT_B450C
0.0002010619
*SOLID SECTION, ELSET=E_OBJ_140_BARRA, MATERIAL=MAT_B450C
0.0002010619
*SOLID SECTION, ELSET=E_OBJ_113_STAFFA, MATERIAL=MAT_B450C
0.0000502655
*SOLID SECTION, ELSET=E_OBJ_114_STAFFA, MATERIAL=MAT_B450C
0.0000502655
*SOLID SECTION, ELSET=E_OBJ_115_STAFFA, MATERIAL=MAT_B450C
0.0000502655
*SOLID SECTION, ELSET=E_OBJ_116_STAFFA, MATERIAL=MAT_B450C
0.0000502655
*SOLID SECTION, ELSET=E_OBJ_117_STAFFA, MATERIAL=MAT_B450C
0.0000502655
*SOLID SECTION, ELSET=E_OBJ_118_STAFFA, MATERIAL=MAT_B450C
0.0000502655
*SOLID SECTION, ELSET=E_OBJ_119_STAFFA, MATERIAL=MAT_B450C
0.0000502655
*SOLID SECTION, ELSET=E_OBJ_120_STAFFA, MATERIAL=MAT_B450C
0.0000502655
*SOLID SECTION, ELSET=E_OBJ_121_STAFFA, MATERIAL=MAT_B450C
0.0000502655
*SOLID SECTION, ELSET=E_OBJ_122_STAFFA, MATERIAL=MAT_B450C
0.0000502655
*SOLID SECTION, ELSET=E_OBJ_123_STAFFA, MATERIAL=MAT_B450C
0.0000502655
*SOLID SECTION, ELSET=E_OBJ_124_STAFFA, MATERIAL=MAT_B450C
0.0000502655
*SOLID SECTION, ELSET=E_OBJ_125_STAFFA, MATERIAL=MAT_B450C
0.0000502655
*SOLID SECTION, ELSET=E_OBJ_126_STAFFA, MATERIAL=MAT_B450C
0.0000502655
*SOLID SECTION, ELSET=E_OBJ_127_STAFFA, MATERIAL=MAT_B450C
0.0000502655
*SOLID SECTION, ELSET=E_OBJ_128_STAFFA, MATERIAL=MAT_B450C
0.0000502655
*SOLID SECTION, ELSET=E_OBJ_129_STAFFA, MATERIAL=MAT_B450C
0.0000502655
*SOLID SECTION, ELSET=E_OBJ_130_STAFFA, MATERIAL=MAT_B450C
0.0000502655
*SOLID SECTION, ELSET=E_OBJ_131_STAFFA, MATERIAL=MAT_B450C
0.0000502655
*SOLID SECTION, ELSET=E_OBJ_132_STAFFA, MATERIAL=MAT_B450C
0.0000502655
**
** ============================================
** STEP DI ANALISI
** ============================================
*STEP
*STATIC
**
** VINCOLI
*BOUNDARY
1, 1, 1, 0.00000000e+00
1, 2, 2, 0.00000000e+00
1, 3, 3, 0.00000000e+00
2, 1, 1, 0.00000000e+00
2, 2, 2, 0.00000000e+00
2, 3, 3, 0.00000000e+00
3, 1, 1, 0.00000000e+00
3, 2, 2, 0.00000000e+00
3, 3, 3, 0.00000000e+00
4, 1, 1, 0.00000000e+00
4, 2, 2, 0.00000000e+00
4, 3, 3, 0.00000000e+00
5, 1, 1, 0.00000000e+00
5, 2, 2, 0.00000000e+00
5, 3, 3, 0.00000000e+00
6, 1, 1, 0.00000000e+00
6, 2, 2, 0.00000000e+00
6, 3, 3, 0.00000000e+00
7, 1, 1, 0.00000000e+00
7, 2, 2, 0.00000000e+00
** ... 1624 like lines cut
**
** CARICHI (kN -> N)
*CLOAD
9661, 3, -2.19780220e+04
9662, 3, -2.19780220e+04
9678, 3, -2.19780220e+04
9679, 3, -2.19780220e+04
9680, 3, -2.19780220e+04
9681, 3, -2.19780220e+04
9682, 3, -2.19780220e+04
9683, 3, -2.19780220e+04
9684, 3, -2.19780220e+04
9685, 3, -2.19780220e+04
9686, 3, -2.19780220e+04
9687, 3, -2.19780220e+04
9688, 3, -2.19780220e+04
9689, 3, -2.19780220e+04
9690, 3, -2.19780220e+04
9691, 3, -2.19780220e+04
9692, 3, -2.19780220e+04
9693, 3, -2.19780220e+04
9694, 3, -2.19780220e+04
9710, 3, -2.19780220e+04
** ... 71 like lines cut
**
*NODE FILE
U
*EL FILE
S, E
*END STEP
