** CalculiX input file generato da SectionCHECK
** Elemento: Plinto_con_Pilastro
** Nodi: 2482  Elementi: 1711
**
*NODE, NSET=NALL
1, 0.00000000e+00, 0.00000000e+00, 0.00000000e+00
2, 4.00000000e-01, 0.00000000e+00, 0.00000000e+00
3, 8.00000000e-01, 0.00000000e+00, 0.00000000e+00
4, 1.20000000e+00, 0.00000000e+00, 0.00000000e+00
5, 1.60000000e+00, 0.00000000e+00, 0.00000000e+00
6, 2.00000000e+00, 0.00000000e+00, 0.00000000e+00
7, 0.00000000e+00, 4.00000000e-01, 0.00000000e+00
8, 4.00000000e-01, 4.00000000e-01, 0.00000000e+00
9, 8.00000000e-01, 4.00000000e-01, 0.00000000e+00
10, 1.20000000e+00, 4.00000000e-01, 0.00000000e+00
11, 1.60000000e+00, 4.00000000e-01, 0.00000000e+00
12, 2.00000000e+00, 4.00000000e-01, 0.00000000e+00
13, 0.00000000e+00, 8.00000000e-01, 0.00000000e+00
14, 4.00000000e-01, 8.00000000e-01, 0.00000000e+00
15, 8.00000000e-01, 8.00000000e-01, 0.00000000e+00
16, 1.20000000e+00, 8.00000000e-01, 0.00000000e+00
17, 1.60000000e+00, 8.00000000e-01, 0.00000000e+00
18, 2.00000000e+00, 8.00000000e-01, 0.00000000e+00
19, 0.00000000e+00, 1.20000000e+00, 0.00000000e+00
20, 4.00000000e-01, 1.20000000e+00, 0.00000000e+00
** ... 2462 like lines cut
*ELEMENT, TYPE=C3D8, ELSET=EALL_HEX
1, 1, 2, 8, 7, 37, 38, 44, 43
2, 2, 3, 9, 8, 38, 39, 45, 44
3, 3, 4, 10, 9, 39, 40, 46, 45
4, 4, 5, 11, 10, 40, 41, 47, 46
5, 5, 6, 12, 11, 41, 42, 48, 47
6, 7, 8, 14, 13, 43, 44, 50, 49
7, 8, 9, 15, 14, 44, 45, 51, 50
8, 9, 10, 16, 15, 45, 46, 52, 51
9, 10, 11, 17, 16, 46, 47, 53, 52
10, 11, 12, 18, 17, 47, 48, 54, 53
11, 13, 14, 20, 19, 49, 50, 56, 55
12, 14, 15, 21, 20, 50, 51, 57, 56
13, 15, 16, 22, 21, 51, 52, 58, 57
14, 16, 17, 23, 22, 52, 53, 59, 58
15, 17, 18, 24, 23, 53, 54, 60, 59
16, 19, 20, 26, 25, 55, 56, 62, 61
17, 20, 21, 27, 26, 56, 57, 63, 62
18, 21, 22, 28, 27, 57, 58, 64, 63
19, 22, 23, 29, 28, 58, 59, 65, 64
20, 23, 24, 30, 29, 59, 60, 66, 65
** ... 1355 like lines cut
*ELEMENT, TYPE=T3D2, ELSET=EALL_TRUSS
1376, 2089, 2090
1377, 2090, 2091
1378, 2091, 2092
1379, 2092, 2093
1380, 2093, 2094
1381, 2094, 2095
1382, 2095, 2096
1383, 2096, 2097
1384, 2097, 2098
1385, 2098, 2099
1386, 2099, 2100
1387, 2100, 2101
1388, 2102, 2103
1389, 2103, 2104
1390, 2104, 2105
1391, 2105, 2106
1392, 2106, 2107
1393, 2107, 2108
1394, 2108, 2109
1395, 2109, 2110
** ... 316 like lines cut
*NSET, NSET=N_OBJ_179_CARPENTERIA
1, 2, 3, 4, 5, 6, 7, 8, 9, 10, 11, 12, 13, 14, 15, 16,
17, 18, 19, 20, 21, 22, 23, 24, 25, 26, 27, 28, 29, 30, 31, 32,
33, 34, 35, 36, 37, 38, 39, 40, 41, 42, 43, 44, 45, 46, 47, 48,
49, 50, 51, 52, 53, 54, 55, 56, 57, 58, 59, 60, 61, 62, 63, 64,
65, 66, 67, 68, 69, 70, 71, 72, 73, 74, 75, 76, 77, 78, 79, 80,
81, 82, 83, 84, 85, 86, 87, 88, 89, 90, 91, 92, 93, 94, 95, 96,
97, 98, 99, 100, 101, 102, 103, 104, 105, 106, 107, 108
*ELSET, ELSET=E_OBJ_179_CARPENTERIA
1, 2, 3, 4, 5, 6, 7, 8, 9, 10, 11, 12, 13, 14, 15, 16,
17, 18, 19, 20, 21, 22, 23, 24, 25, 26, 27, 28, 29, 30, 31, 32,
33, 34, 35, 36, 37, 38, 39, 40, 41, 42, 43, 44, 45, 46, 47, 48,
49, 50
*NSET, NSET=N_OBJ_180_CARPENTERIA
109, 110, 111, 112, 113, 114, 115, 116, 117, 118, 119, 120, 121, 122, 123, 124,
125, 126, 127, 128, 129, 130, 131, 132, 133, 134, 135, 136, 137, 138, 139, 140,
141, 142, 143, 144, 145, 146, 147, 148, 149, 150, 151, 152, 153, 154, 155, 156,
157, 158, 159, 160, 161, 162, 163, 164, 165, 166, 167, 168, 169, 170, 171, 172,
173, 174, 175, 176, 177, 178, 179, 180, 181, 182, 183, 184, 185, 186, 187, 188,
189, 190, 191, 192, 193, 194, 195, 196, 197, 198, 199, 200, 201, 202, 203, 204,
205, 206, 207, 208, 209, 210, 211, 212, 213, 214, 215, 216, 217, 218, 219, 220,
221, 222, 223, 224, 225, 226, 227, 228, 229, 230, 231, 232, 233, 234, 235, 236,
237, 238, 239, 240, 241, 242, 243, 244, 245, 246, 247, 248, 249, 250, 251, 252
*ELSET, ELSET=E_OBJ_180_CARPENTERIA
51, 52, 53, 54, 55, 56, 57, 58, 59, 60, 61, 62, 63, 64, 65, 66,
67, 68, 69, 70, 71, 72, 73, 74, 75, 76, 77, 78, 79, 80, 81, 82,
83, 84, 85, 86, 87, 88, 89, 90, 91, 92, 93, 94, 95, 96, 97, 98,
99, 100, 101, 102, 103, 104, 105, 106, 107, 108, 109, 110, 111, 112, 113, 114,
115, 116, 117, 118, 119, 120, 121, 122, 123, 124, 125
*NSET, NSET=N_OBJ_191_CARPENTERIA
253, 254, 255, 256, 257, 258, 259, 260, 261, 262, 263, 264, 265, 266, 267, 268,
269, 270, 271, 272, 273, 274, 275, 276, 277, 278, 279, 280, 281, 282, 283, 284,
285, 286, 287, 288, 289, 290, 291, 292, 293, 294, 295, 296, 297, 298, 299, 300,
301, 302, 303, 304, 305, 306, 307, 308, 309, 310, 311, 312, 313, 314, 315, 316,
317, 318, 319, 320, 321, 322, 323, 324, 325, 326, 327, 328, 329, 330, 331, 332,
333, 334, 335, 336, 337, 338, 339, 340, 341, 342, 343, 344, 345, 346, 347, 348,
349, 350, 351, 352, 353, 354, 355, 356, 357, 358, 359, 360, 361, 362, 363, 364,
365, 366, 367, 368, 369, 370, 371, 372, 373, 374, 375, 376, 377, 378, 379, 380,
381, 382, 383, 384, 385, 386, 387, 388, 389, 390, 391, 392, 393, 394, 395, 396,
397, 398, 399, 400, 401, 402, 403, 404, 405, 406, 407, 408, 409, 410, 411, 412,
413, 414, 415, 416, 417, 418, 419, 420, 421, 422, 423, 424, 425, 426, 427, 428,
429, 430, 431, 432, 433, 434, 435, 436, 437, 438, 439, 440, 441, 442, 443, 444,
445, 446, 447, 448, 449, 450, 451, 452, 453, 454, 455, 456, 457, 458, 459, 460,
461, 462, 463, 464, 465, 466, 467, 468, 469, 470, 471, 472, 473, 474, 475, 476,
477, 478, 479, 480, 481, 482, 483, 484, 485, 486, 487, 488, 489, 490, 491, 492,
493, 494, 495, 496, 497, 498, 499, 500, 501, 502, 503, 504, 505, 506, 507, 508,
509, 510, 511, 512, 513, 514, 515, 516, 517, 518, 519, 520, 521, 522, 523, 524,
525, 526, 527, 528, 529, 530, 531, 532, 533, 534, 535, 536, 537, 538, 539, 540,
541, 542, 543, 544, 545, 546, 547, 548, 549, 550, 551, 552, 553, 554, 555, 556,
557, 558, 559, 560, 561, 562, 563, 564, 565, 566, 567, 568, 569, 570, 571, 572,
** ... 95 like lines cut
*ELSET, ELSET=E_OBJ_191_CARPENTERIA
126, 127, 128, 129, 130, 131, 132, 133, 134, 135, 136, 137, 138, 139, 140, 141,
142, 143, 144, 145, 146, 147, 148, 149, 150, 151, 152, 153, 154, 155, 156, 157,
158, 159, 160, 161, 162, 163, 164, 165, 166, 167, 168, 169, 170, 171, 172, 173,
174, 175, 176, 177, 178, 179, 180, 181, 182, 183, 184, 185, 186, 187, 188, 189,
190, 191, 192, 193, 194, 195, 196, 197, 198, 199, 200, 201, 202, 203, 204, 205,
206, 207, 208, 209, 210, 211, 212, 213, 214, 215, 216, 217, 218, 219, 220, 221,
222, 223, 224, 225, 226, 227, 228, 229, 230, 231, 232, 233, 234, 235, 236, 237,
238, 239, 240, 241, 242, 243, 244, 245, 246, 247, 248, 249, 250, 251, 252, 253,
254, 255, 256, 257, 258, 259, 260, 261, 262, 263, 264, 265, 266, 267, 268, 269,
270, 271, 272, 273, 274, 275, 276, 277, 278, 279, 280, 281, 282, 283, 284, 285,
286, 287, 288, 289, 290, 291, 292, 293, 294, 295, 296, 297, 298, 299, 300, 301,
302, 303, 304, 305, 306, 307, 308, 309, 310, 311, 312, 313, 314, 315, 316, 317,
318, 319, 320, 321, 322, 323, 324, 325, 326, 327, 328, 329, 330, 331, 332, 333,
334, 335, 336, 337, 338, 339, 340, 341, 342, 343, 344, 345, 346, 347, 348, 349,
350, 351, 352, 353, 354, 355, 356, 357, 358, 359, 360, 361, 362, 363, 364, 365,
366, 367, 368, 369, 370, 371, 372, 373, 374, 375, 376, 377, 378, 379, 380, 381,
382, 383, 384, 385, 386, 387, 388, 389, 390, 391, 392, 393, 394, 395, 396, 397,
398, 399, 400, 401, 402, 403, 404, 405, 406, 407, 408, 409, 410, 411, 412, 413,
414, 415, 416, 417, 418, 419, 420, 421, 422, 423, 424, 425, 426, 427, 428, 429,
430, 431, 432, 433, 434, 435, 436, 437, 438, 439, 440, 441, 442, 443, 444, 445,
** ... 59 like lines cut
*NSET, NSET=N_OBJ_222_BARRA
2089, 2090, 2091, 2092, 2093, 2094, 2095, 2096, 2097, 2098, 2099, 2100, 2101
*ELSET, ELSET=E_OBJ_222_BARRA
1376, 1377, 1378, 1379, 1380, 1381, 1382, 1383, 1384, 1385, 1386, 1387
*NSET, NSET=N_OBJ_223_BARRA
2102, 2103, 2104, 2105, 2106, 2107, 2108, 2109, 2110, 2111, 2112, 2113, 2114
*ELSET, ELSET=E_OBJ_223_BARRA
1388, 1389, 1390, 1391, 1392, 1393, 1394, 1395, 1396, 1397, 1398, 1399
*NSET, NSET=N_OBJ_224_BARRA
2115, 2116, 2117, 2118, 2119, 2120, 2121, 2122, 2123, 2124, 2125, 2126, 2127
*ELSET, ELSET=E_OBJ_224_BARRA
1400, 1401, 1402, 1403, 1404, 1405, 1406, 1407, 1408, 1409, 1410, 1411
*NSET, NSET=N_OBJ_225_BARRA
2128, 2129, 2130, 2131, 2132, 2133, 2134, 2135, 2136, 2137, 2138, 2139, 2140
*ELSET, ELSET=E_OBJ_225_BARRA
1412, 1413, 1414, 1415, 1416, 1417, 1418, 1419, 1420, 1421, 1422, 1423
*NSET, NSET=N_OBJ_226_BARRA
2141, 2142, 2143, 2144, 2145, 2146, 2147, 2148, 2149, 2150, 2151, 2152, 2153
*ELSET, ELSET=E_OBJ_226_BARRA
1424, 1425, 1426, 1427, 1428, 1429, 1430, 1431, 1432, 1433, 1434, 1435
*NSET, NSET=N_OBJ_227_BARRA
2154, 2155, 2156, 2157, 2158, 2159, 2160, 2161, 2162, 2163, 2164, 2165, 2166
*ELSET, ELSET=E_OBJ_227_BARRA
1436, 1437, 1438, 1439, 1440, 1441, 1442, 1443, 1444, 1445, 1446, 1447
*NSET, NSET=N_OBJ_228_BARRA
2167, 2168, 2169, 2170, 2171, 2172, 2173, 2174, 2175, 2176, 2177, 2178, 2179
*ELSET, ELSET=E_OBJ_228_BARRA
1448, 1449, 1450, 1451, 1452, 1453, 1454, 1455, 1456, 1457, 1458, 1459
*NSET, NSET=N_OBJ_229_BARRA
2180, 2181, 2182, 2183, 2184, 2185, 2186, 2187, 2188, 2189, 2190, 2191, 2192
*ELSET, ELSET=E_OBJ_229_BARRA
1460, 1461, 1462, 1463, 1464, 1465, 1466, 1467, 1468, 1469, 1470, 1471
*NSET, NSET=N_OBJ_230_BARRA
2193, 2194, 2195, 2196, 2197, 2198, 2199
*ELSET, ELSET=E_OBJ_230_BARRA
1472, 1473, 1474, 1475, 1476, 1477
*NSET, NSET=N_OBJ_231_BARRA
2200, 2201, 2202, 2203, 2204, 2205, 2206
*ELSET, ELSET=E_OBJ_231_BARRA
1478, 1479, 1480, 1481, 1482, 1483
*NSET, NSET=N_OBJ_232_BARRA
2207, 2208, 2209, 2210, 2211, 2212, 2213
*ELSET, ELSET=E_OBJ_232_BARRA
1484, 1485, 1486, 1487, 1488, 1489
*NSET, NSET=N_OBJ_233_BARRA
2214, 2215, 2216, 2217, 2218, 2219, 2220
*ELSET, ELSET=E_OBJ_233_BARRA
1490, 1491, 1492, 1493, 1494, 1495
*NSET, NSET=N_OBJ_234_BARRA
2221, 2222, 2223, 2224, 2225, 2226, 2227
*ELSET, ELSET=E_OBJ_234_BARRA
1496, 1497, 1498, 1499, 1500, 1501
*NSET, NSET=N_OBJ_235_BARRA
2228, 2229, 2230, 2231, 2232, 2233, 2234
*ELSET, ELSET=E_OBJ_235_BARRA
1502, 1503, 1504, 1505, 1506, 1507
*NSET, NSET=N_OBJ_236_BARRA
2235, 2236, 2237, 2238, 2239, 2240, 2241
*ELSET, ELSET=E_OBJ_236_BARRA
1508, 1509, 1510, 1511, 1512, 1513
*NSET, NSET=N_OBJ_237_BARRA
2242, 2243, 2244, 2245, 2246, 2247, 2248
*ELSET, ELSET=E_OBJ_237_BARRA
1514, 1515, 1516, 1517, 1518, 1519
*NSET, NSET=N_OBJ_238_BARRA
2249, 2250, 2251, 2252, 2253, 2254, 2255
*ELSET, ELSET=E_OBJ_238_BARRA
1520, 1521, 1522, 1523, 1524, 1525
*NSET, NSET=N_OBJ_239_BARRA
2256, 2257, 2258, 2259, 2260, 2261, 2262
*ELSET, ELSET=E_OBJ_239_BARRA
1526, 1527, 1528, 1529, 1530, 1531
*NSET, NSET=N_OBJ_240_BARRA
2263, 2264, 2265, 2266, 2267, 2268, 2269
*ELSET, ELSET=E_OBJ_240_BARRA
1532, 1533, 1534, 1535, 1536, 1537
*NSET, NSET=N_OBJ_241_BARRA
2270, 2271, 2272, 2273, 2274, 2275, 2276
*ELSET, ELSET=E_OBJ_241_BARRA
1538, 1539, 1540, 1541, 1542, 1543
*NSET, NSET=N_OBJ_242_BARRA
2277, 2278, 2279, 2280, 2281, 2282, 2283
*ELSET, ELSET=E_OBJ_242_BARRA
1544, 1545, 1546, 1547, 1548, 1549
*NSET, NSET=N_OBJ_243_BARRA
2284, 2285, 2286, 2287, 2288, 2289, 2290
*ELSET, ELSET=E_OBJ_243_BARRA
1550, 1551, 1552, 1553, 1554, 1555
*NSET, NSET=N_OBJ_244_BARRA
2291, 2292, 2293, 2294, 2295, 2296, 2297
*ELSET, ELSET=E_OBJ_244_BARRA
1556, 1557, 1558, 1559, 1560, 1561
*NSET, NSET=N_OBJ_245_BARRA
2298, 2299, 2300, 2301, 2302, 2303, 2304
*ELSET, ELSET=E_OBJ_245_BARRA
1562, 1563, 1564, 1565, 1566, 1567
*NSET, NSET=N_OBJ_246_BARRA
2305, 2306, 2307, 2308, 2309, 2310, 2311
*ELSET, ELSET=E_OBJ_246_BARRA
1568, 1569, 1570, 1571, 1572, 1573
*NSET, NSET=N_OBJ_247_BARRA
2312, 2313, 2314, 2315, 2316, 2317, 2318
*ELSET, ELSET=E_OBJ_247_BARRA
1574, 1575, 1576, 1577, 1578, 1579
*NSET, NSET=N_OBJ_248_BARRA
2319, 2320, 2321, 2322, 2323, 2324, 2325
*ELSET, ELSET=E_OBJ_248_BARRA
1580, 1581, 1582, 1583, 1584, 1585
*NSET, NSET=N_OBJ_249_BARRA
2326, 2327, 2328, 2329, 2330, 2331, 2332
*ELSET, ELSET=E_OBJ_249_BARRA
1586, 1587, 1588, 1589, 1590, 1591
*NSET, NSET=N_OBJ_192_STAFFA
2333, 2334, 2335, 2336, 2337
*ELSET, ELSET=E_OBJ_192_STAFFA
1592, 1593, 1594, 1595
*NSET, NSET=N_OBJ_193_STAFFA
2338, 2339, 2340, 2341, 2342
*ELSET, ELSET=E_OBJ_193_STAFFA
1596, 1597, 1598, 1599
*NSET, NSET=N_OBJ_194_STAFFA
2343, 2344, 2345, 2346, 2347
*ELSET, ELSET=E_OBJ_194_STAFFA
1600, 1601, 1602, 1603
*NSET, NSET=N_OBJ_195_STAFFA
2348, 2349, 2350, 2351, 2352
*ELSET, ELSET=E_OBJ_195_STAFFA
1604, 1605, 1606, 1607
*NSET, NSET=N_OBJ_196_STAFFA
2353, 2354, 2355, 2356, 2357
*ELSET, ELSET=E_OBJ_196_STAFFA
1608, 1609, 1610, 1611
*NSET, NSET=N_OBJ_197_STAFFA
2358, 2359, 2360, 2361, 2362
*ELSET, ELSET=E_OBJ_197_STAFFA
1612, 1613, 1614, 1615
*NSET, NSET=N_OBJ_198_STAFFA
2363, 2364, 2365, 2366, 2367
*ELSET, ELSET=E_OBJ_198_STAFFA
1616, 1617, 1618, 1619
*NSET, NSET=N_OBJ_199_STAFFA
2368, 2369, 2370, 2371, 2372
*ELSET, ELSET=E_OBJ_199_STAFFA
1620, 1621, 1622, 1623
*NSET, NSET=N_OBJ_200_STAFFA
2373, 2374, 2375, 2376, 2377
*ELSET, ELSET=E_OBJ_200_STAFFA
1624, 1625, 1626, 1627
*NSET, NSET=N_OBJ_201_STAFFA
2378, 2379, 2380, 2381, 2382
*ELSET, ELSET=E_OBJ_201_STAFFA
1628, 1629, 1630, 1631
*NSET, NSET=N_OBJ_202_STAFFA
2383, 2384, 2385, 2386, 2387
*ELSET, ELSET=E_OBJ_202_STAFFA
1632, 1633, 1634, 1635
*NSET, NSET=N_OBJ_203_STAFFA
2388, 2389, 2390, 2391, 2392
*ELSET, ELSET=E_OBJ_203_STAFFA
1636, 1637, 1638, 1639
*NSET, NSET=N_OBJ_204_STAFFA
2393, 2394, 2395, 2396, 2397
*ELSET, ELSET=E_OBJ_204_STAFFA
1640, 1641, 1642, 1643
*NSET, NSET=N_OBJ_205_STAFFA
2398, 2399, 2400, 2401, 2402
*ELSET, ELSET=E_OBJ_205_STAFFA
1644, 1645, 1646, 1647
*NSET, NSET=N_OBJ_206_STAFFA
2403, 2404, 2405, 2406, 2407
*ELSET, ELSET=E_OBJ_206_STAFFA
1648, 1649, 1650, 1651
*NSET, NSET=N_OBJ_207_STAFFA
2408, 2409, 2410, 2411, 2412
*ELSET, ELSET=E_OBJ_207_STAFFA
1652, 1653, 1654, 1655
*NSET, NSET=N_OBJ_208_STAFFA
2413, 2414, 2415, 2416, 2417
*ELSET, ELSET=E_OBJ_208_STAFFA
1656, 1657, 1658, 1659
*NSET, NSET=N_OBJ_209_STAFFA
2418, 2419, 2420, 2421, 2422
*ELSET, ELSET=E_OBJ_209_STAFFA
1660, 1661, 1662, 1663
*NSET, NSET=N_OBJ_210_STAFFA
2423, 2424, 2425, 2426, 2427
*ELSET, ELSET=E_OBJ_210_STAFFA
1664, 1665, 1666, 1667
*NSET, NSET=N_OBJ_211_STAFFA
2428, 2429, 2430, 2431, 2432
*ELSET, ELSET=E_OBJ_211_STAFFA
1668, 1669, 1670, 1671
*NSET, NSET=N_OBJ_212_STAFFA
2433, 2434, 2435, 2436, 2437
*ELSET, ELSET=E_OBJ_212_STAFFA
1672, 1673, 1674, 1675
*NSET, NSET=N_OBJ_213_STAFFA
2438, 2439, 2440, 2441, 2442
*ELSET, ELSET=E_OBJ_213_STAFFA
1676, 1677, 1678, 1679
*NSET, NSET=N_OBJ_214_STAFFA
2443, 2444, 2445, 2446, 2447
*ELSET, ELSET=E_OBJ_214_STAFFA
1680, 1681, 1682, 1683
*NSET, NSET=N_OBJ_215_STAFFA
2448, 2449, 2450, 2451, 2452
*ELSET, ELSET=E_OBJ_215_STAFFA
1684, 1685, 1686, 1687
*NSET, NSET=N_OBJ_216_STAFFA
2453, 2454, 2455, 2456, 2457
*ELSET, ELSET=E_OBJ_216_STAFFA
1688, 1689, 1690, 1691
*NSET, NSET=N_OBJ_217_STAFFA
2458, 2459, 2460, 2461, 2462
*ELSET, ELSET=E_OBJ_217_STAFFA
1692, 1693, 1694, 1695
*NSET, NSET=N_OBJ_218_STAFFA
2463, 2464, 2465, 2466, 2467
*ELSET, ELSET=E_OBJ_218_STAFFA
1696, 1697, 1698, 1699
*NSET, NSET=N_OBJ_219_STAFFA
2468, 2469, 2470, 2471, 2472
*ELSET, ELSET=E_OBJ_219_STAFFA
1700, 1701, 1702, 1703
*NSET, NSET=N_OBJ_220_STAFFA
2473, 2474, 2475, 2476, 2477
*ELSET, ELSET=E_OBJ_220_STAFFA
1704, 1705, 1706, 1707
*NSET, NSET=N_OBJ_221_STAFFA
2478, 2479, 2480, 2481, 2482
*ELSET, ELSET=E_OBJ_221_STAFFA
1708, 1709, 1710, 1711
*NSET, NSET=N_VINCOLATI
1, 2, 3, 4, 5, 6, 7, 8, 9, 10, 11, 12, 13, 14, 15, 16,
17, 18, 19, 20, 21, 22, 23, 24, 25, 26, 27, 28, 29, 30, 31, 32,
33, 34, 35, 36
*NSET, NSET=N_CARICATI
2053, 2054, 2055, 2056, 2057, 2058, 2059, 2060, 2061, 2062, 2063, 2064, 2065, 2066, 2067, 2068,
2069, 2070, 2071, 2072, 2073, 2074, 2075, 2076, 2077, 2078, 2079, 2080, 2081, 2082, 2083, 2084,
2085, 2086, 2087, 2088, 2101, 2114, 2127, 2140, 2153, 2166, 2179, 2192
**
*MATERIAL, NAME=MAT_C25_30
*ELASTIC
3.1476e+10, 0.2000
*DENSITY
2.5000e+03
**
*MATERIAL, NAME=MAT_B450C
*ELASTIC
2.0000e+11, 0.3000
*DENSITY
7.8500e+03
**
*MATERIAL, NAME=MAT_DEFAULT
*ELASTIC
3.0000e+10, 0.2000
*SOLID SECTION, ELSET=E_OBJ_179_CARPENTERIA, MATERIAL=MAT_C25_30

*SOLID SECTION, ELSET=E_OBJ_180_CARPENTERIA, MATERIAL=MAT_C25_30

*SOLID SECTION, ELSET=E_OBJ_191_CARPENTERIA, MATERIAL=MAT_C25_30

*SOLID SECTION, ELSET=E_OBJ_222_BARRA, MATERIAL=MAT_B450C
0.0003141593
*SOLID SECTION, ELSET=E_OBJ_223_BARRA, MATERIAL=MAT_B450C
0.0003141593
*SOLID SECTION, ELSET=E_OBJ_224_BARRA, MATERIAL=MAT_B450C
0.0003141593
*SOLID SECTION, ELSET=E_OBJ_225_BARRA, MATERIAL=MAT_B450C
0.0003141593
*SOLID SECTION, ELSET=E_OBJ_226_BARRA, MATERIAL=MAT_B450C
0.0003141593
*SOLID SECTION, ELSET=E_OBJ_227_BARRA, MATERIAL=MAT_B450C
0.0003141593
*SOLID SECTION, ELSET=E_OBJ_228_BARRA, MATERIAL=MAT_B450C
0.0003141593
*SOLID SECTION, ELSET=E_OBJ_229_BARRA, MATERIAL=MAT_B450C
0.0003141593
*SOLID SECTION, ELSET=E_OBJ_230_BARRA, MATERIAL=MAT_B450C
0.0003801327
*SOLID SECTION, ELSET=E_OBJ_231_BARRA, MATERIAL=MAT_B450C
0.0003801327
*SOLID SECTION, ELSET=E_OBJ_232_BARRA, MATERIAL=MAT_B450C
0.0003801327
*SOLID SECTION, ELSET=E_OBJ_233_BARRA, MATERIAL=MAT_B450C
0.0003801327
*SOLID SECTION, ELSET=E_OBJ_234_BARRA, MATERIAL=MAT_B450C
0.0003801327
*SOLID SECTION, ELSET=E_OBJ_235_BARRA, MATERIAL=MAT_B450C
0.0003801327
*SOLID SECTION, ELSET=E_OBJ_236_BARRA, MATERIAL=MAT_B450C
0.0003801327
*SOLID SECTION, ELSET=E_OBJ_237_BARRA, MATERIAL=MAT_B450C
0.0003801327
*SOLID SECTION, ELSET=E_OBJ_238_BARRA, MATERIAL=MAT_B450C
0.0003801327
*SOLID SECTION, ELSET=E_OBJ_239_BARRA, MATERIAL=MAT_B450C
0.0003801327
*SOLID SECTION, ELSET=E_OBJ_240_BARRA, MATERIAL=MAT_B450C
0.0003801327
*SOLID SECTION, ELSET=E_OBJ_241_BARRA, MATERIAL=MAT_B450C
0.0003801327
** ... 16 like lines cut
*SOLID SECTION, ELSET=E_OBJ_192_STAFFA, MATERIAL=MAT_B450C
0.0000785398
*SOLID SECTION, ELSET=E_OBJ_193_STAFFA, MATERIAL=MAT_B450C
0.0000785398
*SOLID SECTION, ELSET=E_OBJ_194_STAFFA, MATERIAL=MAT_B450C
0.0000785398
*SOLID SECTION, ELSET=E_OBJ_195_STAFFA, MATERIAL=MAT_B450C
0.0000785398
*SOLID SECTION, ELSET=E_OBJ_196_STAFFA, MATERIAL=MAT_B450C
0.0000785398
*SOLID SECTION, ELSET=E_OBJ_197_STAFFA, MATERIAL=MAT_B450C
0.0000785398
*SOLID SECTION, ELSET=E_OBJ_198_STAFFA, MATERIAL=MAT_B450C
0.0000785398
*SOLID SECTION, ELSET=E_OBJ_199_STAFFA, MATERIAL=MAT_B450C
0.0000785398
*SOLID SECTION, ELSET=E_OBJ_200_STAFFA, MATERIAL=MAT_B450C
0.0000785398
*SOLID SECTION, ELSET=E_OBJ_201_STAFFA, MATERIAL=MAT_B450C
0.0000785398
*SOLID SECTION, ELSET=E_OBJ_202_STAFFA, MATERIAL=MAT_B450C
0.0000785398
*SOLID SECTION, ELSET=E_OBJ_203_STAFFA, MATERIAL=MAT_B450C
0.0000785398
*SOLID SECTION, ELSET=E_OBJ_204_STAFFA, MATERIAL=MAT_B450C
0.0000785398
*SOLID SECTION, ELSET=E_OBJ_205_STAFFA, MATERIAL=MAT_B450C
0.0000785398
*SOLID SECTION, ELSET=E_OBJ_206_STAFFA, MATERIAL=MAT_B450C
0.0000785398
*SOLID SECTION, ELSET=E_OBJ_207_STAFFA, MATERIAL=MAT_B450C
0.0000785398
*SOLID SECTION, ELSET=E_OBJ_208_STAFFA, MATERIAL=MAT_B450C
0.0000785398
*SOLID SECTION, ELSET=E_OBJ_209_STAFFA, MATERIAL=MAT_B450C
0.0000785398
*SOLID SECTION, ELSET=E_OBJ_210_STAFFA, MATERIAL=MAT_B450C
0.0000785398
*SOLID SECTION, ELSET=E_OBJ_211_STAFFA, MATERIAL=MAT_B450C
0.0000785398
** ... 20 like lines cut
**
** TIE CONSTRAINTS - Superficie-Superficie tra carpenteria
*SURFACE, NAME=SURF_TIE_M_179_0, TYPE=ELEMENT
26, S2
26, S3
26, S6
27, S2
27, S3
28, S2
28, S3
29, S2
29, S3
30, S2
30, S3
30, S4
31, S2
31, S6
32, S2
33, S2
34, S2
35, S2
35, S4
36, S2
** ... 25 like lines cut
*SURFACE, NAME=SURF_TIE_S_180_0, TYPE=ELEMENT
51, S1
51, S3
51, S6
52, S1
52, S3
53, S1
53, S3
54, S1
54, S3
55, S1
55, S3
55, S4
56, S1
56, S6
57, S1
58, S1
59, S1
60, S1
60, S4
61, S1
** ... 25 like lines cut
*TIE, NAME=TIE_CARP_0, POSITION TOLERANCE=0.001
SURF_TIE_S_180_0, SURF_TIE_M_179_0
*SURFACE, NAME=SURF_TIE_M_180_1, TYPE=ELEMENT
101, S2
101, S3
101, S6
102, S2
102, S3
103, S2
103, S3
104, S2
104, S3
105, S2
105, S3
105, S4
106, S2
106, S6
107, S2
108, S2
109, S2
110, S2
110, S4
111, S2
** ... 25 like lines cut
*SURFACE, NAME=SURF_TIE_S_191_1, TYPE=ELEMENT
126, S1
126, S3
126, S6
127, S1
127, S3
128, S1
128, S3
129, S1
129, S3
130, S1
130, S3
130, S4
131, S1
131, S6
132, S1
133, S1
134, S1
135, S1
135, S4
136, S1
** ... 25 like lines cut
*TIE, NAME=TIE_CARP_1, POSITION TOLERANCE=0.001
SURF_TIE_S_191_1, SURF_TIE_M_180_1
**
** ============================================
** STEP DI ANALISI
** ============================================
*STEP
*STATIC
**
** VINCOLI
*BOUNDARY
1, 1, 1, 0.00000000e+00
1, 2, 2, 0.00000000e+00
1, 3, 3, 0.00000000e+00
2, 1, 1, 0.00000000e+00
2, 2, 2, 0.00000000e+00
2, 3, 3, 0.00000000e+00
3, 1, 1, 0.00000000e+00
3, 2, 2, 0.00000000e+00
3, 3, 3, 0.00000000e+00
4, 1, 1, 0.00000000e+00
4, 2, 2, 0.00000000e+00
4, 3, 3, 0.00000000e+00
5, 1, 1, 0.00000000e+00
5, 2, 2, 0.00000000e+00
5, 3, 3, 0.00000000e+00
6, 1, 1, 0.00000000e+00
6, 2, 2, 0.00000000e+00
6, 3, 3, 0.00000000e+00
7, 1, 1, 0.00000000e+00
7, 2, 2, 0.00000000e+00
** ... 88 like lines cut
**
** CARICHI (kN -> N)
*CLOAD
2053, 3, -6.81818182e+05
2054, 3, -6.81818182e+05
2055, 3, -6.81818182e+05
2056, 3, -6.81818182e+05
2057, 3, -6.81818182e+05
2058, 3, -6.81818182e+05
2059, 3, -6.81818182e+05
2060, 3, -6.81818182e+05
2061, 3, -6.81818182e+05
2062, 3, -6.81818182e+05
2063, 3, -6.81818182e+05
2064, 3, -6.81818182e+05
2065, 3, -6.81818182e+05
2066, 3, -6.81818182e+05
2067, 3, -6.81818182e+05
2068, 3, -6.81818182e+05
2069, 3, -6.81818182e+05
2070, 3, -6.81818182e+05
2071, 3, -6.81818182e+05
2072, 3, -6.81818182e+05
** ... 24 like lines cut
**
*NODE FILE
U
*EL FILE
S, E
*END STEP
