** CalculiX input file generato da SectionCHECK
** Elemento: Solaio 4.00×1.20
** Nodi: 18870  Elementi: 15068
**
*NODE, NSET=NALL
1, 0.00000000e+00, 0.00000000e+00, 0.00000000e+00
2, 4.00000000e-02, 0.00000000e+00, 0.00000000e+00
3, 8.00000000e-02, 0.00000000e+00, 0.00000000e+00
4, 1.20000000e-01, 0.00000000e+00, 0.00000000e+00
5, 1.60000000e-01, 0.00000000e+00, 0.00000000e+00
6, 2.00000000e-01, 0.00000000e+00, 0.00000000e+00
7, 2.40000000e-01, 0.00000000e+00, 0.00000000e+00
8, 2.80000000e-01, 0.00000000e+00, 0.00000000e+00
9, 3.20000000e-01, 0.00000000e+00, 0.00000000e+00
10, 3.60000000e-01, 0.00000000e+00, 0.00000000e+00
11, 4.00000000e-01, 0.00000000e+00, 0.00000000e+00
12, 4.40000000e-01, 0.00000000e+00, 0.00000000e+00
13, 4.80000000e-01, 0.00000000e+00, 0.00000000e+00
14, 5.20000000e-01, 0.00000000e+00, 0.00000000e+00
15, 5.60000000e-01, 0.00000000e+00, 0.00000000e+00
16, 6.00000000e-01, 0.00000000e+00, 0.00000000e+00
17, 6.40000000e-01, 0.00000000e+00, 0.00000000e+00
18, 6.80000000e-01, 0.00000000e+00, 0.00000000e+00
19, 7.20000000e-01, 0.00000000e+00, 0.00000000e+00
20, 7.60000000e-01, 0.00000000e+00, 0.00000000e+00
** ... 18850 like lines cut
*ELEMENT, TYPE=C3D8I, ELSET=EALL_HEX
1, 1, 2, 103, 102, 3132, 3133, 3234, 3233
2, 2, 3, 104, 103, 3133, 3134, 3235, 3234
3, 3, 4, 105, 104, 3134, 3135, 3236, 3235
4, 4, 5, 106, 105, 3135, 3136, 3237, 3236
5, 5, 6, 107, 106, 3136, 3137, 3238, 3237
6, 6, 7, 108, 107, 3137, 3138, 3239, 3238
7, 7, 8, 109, 108, 3138, 3139, 3240, 3239
8, 8, 9, 110, 109, 3139, 3140, 3241, 3240
9, 9, 10, 111, 110, 3140, 3141, 3242, 3241
10, 10, 11, 112, 111, 3141, 3142, 3243, 3242
11, 11, 12, 113, 112, 3142, 3143, 3244, 3243
12, 12, 13, 114, 113, 3143, 3144, 3245, 3244
13, 13, 14, 115, 114, 3144, 3145, 3246, 3245
14, 14, 15, 116, 115, 3145, 3146, 3247, 3246
15, 15, 16, 117, 116, 3146, 3147, 3248, 3247
16, 16, 17, 118, 117, 3147, 3148, 3249, 3248
17, 17, 18, 119, 118, 3148, 3149, 3250, 3249
18, 18, 19, 120, 119, 3149, 3150, 3251, 3250
19, 19, 20, 121, 120, 3150, 3151, 3252, 3251
20, 20, 21, 122, 121, 3151, 3152, 3253, 3252
** ... 14980 like lines cut
*ELEMENT, TYPE=B31, ELSET=EALL_BEAM
15001, 18787, 18788
15002, 18788, 18789
15003, 18790, 18791
15004, 18791, 18792
15005, 18793, 18794
15006, 18794, 18795
15007, 18796, 18797
15008, 18797, 18798
15009, 18799, 18800
15010, 18800, 18801
15011, 18802, 18803
15012, 18803, 18804
15013, 18805, 18806
15014, 18806, 18807
15015, 18808, 18809
15016, 18809, 18810
15017, 18811, 18812
15018, 18812, 18813
15019, 18814, 18815
15020, 18815, 18816
** ... 48 like lines cut
*NSET, NSET=N_OBJ_90_CARPENTERIA
1, 2, 3, 4, 5, 6, 7, 8, 9, 10, 11, 12, 13, 14, 15, 16,
17, 18, 19, 20, 21, 22, 23, 24, 25, 26, 27, 28, 29, 30, 31, 32,
33, 34, 35, 36, 37, 38, 39, 40, 41, 42, 43, 44, 45, 46, 47, 48,
49, 50, 51, 52, 53, 54, 55, 56, 57, 58, 59, 60, 61, 62, 63, 64,
65, 66, 67, 68, 69, 70, 71, 72, 73, 74, 75, 76, 77, 78, 79, 80,
81, 82, 83, 84, 85, 86, 87, 88, 89, 90, 91, 92, 93, 94, 95, 96,
97, 98, 99, 100, 101, 102, 103, 104, 105, 106, 107, 108, 109, 110, 111, 112,
113, 114, 115, 116, 117, 118, 119, 120, 121, 122, 123, 124, 125, 126, 127, 128,
129, 130, 131, 132, 133, 134, 135, 136, 137, 138, 139, 140, 141, 142, 143, 144,
145, 146, 147, 148, 149, 150, 151, 152, 153, 154, 155, 156, 157, 158, 159, 160,
161, 162, 163, 164, 165, 166, 167, 168, 169, 170, 171, 172, 173, 174, 175, 176,
177, 178, 179, 180, 181, 182, 183, 184, 185, 186, 187, 188, 189, 190, 191, 192,
193, 194, 195, 196, 197, 198, 199, 200, 201, 202, 203, 204, 205, 206, 207, 208,
209, 210, 211, 212, 213, 214, 215, 216, 217, 218, 219, 220, 221, 222, 223, 224,
225, 226, 227, 228, 229, 230, 231, 232, 233, 234, 235, 236, 237, 238, 239, 240,
241, 242, 243, 244, 245, 246, 247, 248, 249, 250, 251, 252, 253, 254, 255, 256,
257, 258, 259, 260, 261, 262, 263, 264, 265, 266, 267, 268, 269, 270, 271, 272,
273, 274, 275, 276, 277, 278, 279, 280, 281, 282, 283, 284, 285, 286, 287, 288,
289, 290, 291, 292, 293, 294, 295, 296, 297, 298, 299, 300, 301, 302, 303, 304,
305, 306, 307, 308, 309, 310, 311, 312, 313, 314, 315, 316, 317, 318, 319, 320,
** ... 1155 like lines cut
*ELSET, ELSET=E_OBJ_90_CARPENTERIA
1, 2, 3, 4, 5, 6, 7, 8, 9, 10, 11, 12, 13, 14, 15, 16,
17, 18, 19, 20, 21, 22, 23, 24, 25, 26, 27, 28, 29, 30, 31, 32,
33, 34, 35, 36, 37, 38, 39, 40, 41, 42, 43, 44, 45, 46, 47, 48,
49, 50, 51, 52, 53, 54, 55, 56, 57, 58, 59, 60, 61, 62, 63, 64,
65, 66, 67, 68, 69, 70, 71, 72, 73, 74, 75, 76, 77, 78, 79, 80,
81, 82, 83, 84, 85, 86, 87, 88, 89, 90, 91, 92, 93, 94, 95, 96,
97, 98, 99, 100, 101, 102, 103, 104, 105, 106, 107, 108, 109, 110, 111, 112,
113, 114, 115, 116, 117, 118, 119, 120, 121, 122, 123, 124, 125, 126, 127, 128,
129, 130, 131, 132, 133, 134, 135, 136, 137, 138, 139, 140, 141, 142, 143, 144,
145, 146, 147, 148, 149, 150, 151, 152, 153, 154, 155, 156, 157, 158, 159, 160,
161, 162, 163, 164, 165, 166, 167, 168, 169, 170, 171, 172, 173, 174, 175, 176,
177, 178, 179, 180, 181, 182, 183, 184, 185, 186, 187, 188, 189, 190, 191, 192,
193, 194, 195, 196, 197, 198, 199, 200, 201, 202, 203, 204, 205, 206, 207, 208,
209, 210, 211, 212, 213, 214, 215, 216, 217, 218, 219, 220, 221, 222, 223, 224,
225, 226, 227, 228, 229, 230, 231, 232, 233, 234, 235, 236, 237, 238, 239, 240,
241, 242, 243, 244, 245, 246, 247, 248, 249, 250, 251, 252, 253, 254, 255, 256,
257, 258, 259, 260, 261, 262, 263, 264, 265, 266, 267, 268, 269, 270, 271, 272,
273, 274, 275, 276, 277, 278, 279, 280, 281, 282, 283, 284, 285, 286, 287, 288,
289, 290, 291, 292, 293, 294, 295, 296, 297, 298, 299, 300, 301, 302, 303, 304,
305, 306, 307, 308, 309, 310, 311, 312, 313, 314, 315, 316, 317, 318, 319, 320,
** ... 918 like lines cut
*NSET, NSET=N_OBJ_91_BARRA
18787, 18788, 18789
*ELSET, ELSET=E_OBJ_91_BARRA
15001, 15002
*NSET, NSET=N_OBJ_92_BARRA
18790, 18791, 18792
*ELSET, ELSET=E_OBJ_92_BARRA
15003, 15004
*NSET, NSET=N_OBJ_93_BARRA
18793, 18794, 18795
*ELSET, ELSET=E_OBJ_93_BARRA
15005, 15006
*NSET, NSET=N_OBJ_94_BARRA
18796, 18797, 18798
*ELSET, ELSET=E_OBJ_94_BARRA
15007, 15008
*NSET, NSET=N_OBJ_95_BARRA
18799, 18800, 18801
*ELSET, ELSET=E_OBJ_95_BARRA
15009, 15010
*NSET, NSET=N_OBJ_96_BARRA
18802, 18803, 18804
*ELSET, ELSET=E_OBJ_96_BARRA
15011, 15012
*NSET, NSET=N_OBJ_97_BARRA
18805, 18806, 18807
*ELSET, ELSET=E_OBJ_97_BARRA
15013, 15014
*NSET, NSET=N_OBJ_98_BARRA
18808, 18809, 18810
*ELSET, ELSET=E_OBJ_98_BARRA
15015, 15016
*NSET, NSET=N_OBJ_99_BARRA
18811, 18812, 18813
*ELSET, ELSET=E_OBJ_99_BARRA
15017, 15018
*NSET, NSET=N_OBJ_100_BARRA
18814, 18815, 18816
*ELSET, ELSET=E_OBJ_100_BARRA
15019, 15020
*NSET, NSET=N_OBJ_101_BARRA
18817, 18818, 18819
*ELSET, ELSET=E_OBJ_101_BARRA
15021, 15022
*NSET, NSET=N_OBJ_102_BARRA
18820, 18821, 18822
*ELSET, ELSET=E_OBJ_102_BARRA
15023, 15024
*NSET, NSET=N_OBJ_103_BARRA
18823, 18824, 18825
*ELSET, ELSET=E_OBJ_103_BARRA
15025, 15026
*NSET, NSET=N_OBJ_104_BARRA
18826, 18827, 18828
*ELSET, ELSET=E_OBJ_104_BARRA
15027, 15028
*NSET, NSET=N_OBJ_105_BARRA
18829, 18830, 18831
*ELSET, ELSET=E_OBJ_105_BARRA
15029, 15030
*NSET, NSET=N_OBJ_106_BARRA
18832, 18833, 18834
*ELSET, ELSET=E_OBJ_106_BARRA
15031, 15032
*NSET, NSET=N_OBJ_107_STAFFA
18835, 18836, 18837, 18838, 18839, 18840, 18841, 18842, 18843
*ELSET, ELSET=E_OBJ_107_STAFFA
15033, 15034, 15035, 15036, 15037, 15038, 15039, 15040, 15041
*NSET, NSET=N_OBJ_108_STAFFA
18844, 18845, 18846, 18847, 18848, 18849, 18850, 18851, 18852
*ELSET, ELSET=E_OBJ_108_STAFFA
15042, 15043, 15044, 15045, 15046, 15047, 15048, 15049, 15050
*NSET, NSET=N_OBJ_109_STAFFA
18853, 18854, 18855, 18856, 18857, 18858, 18859, 18860, 18861
*ELSET, ELSET=E_OBJ_109_STAFFA
15051, 15052, 15053, 15054, 15055, 15056, 15057, 15058, 15059
*NSET, NSET=N_OBJ_110_STAFFA
18862, 18863, 18864, 18865, 18866, 18867, 18868, 18869, 18870
*ELSET, ELSET=E_OBJ_110_STAFFA
15060, 15061, 15062, 15063, 15064, 15065, 15066, 15067, 15068
**
*MATERIAL, NAME=MAT_C25/30
*ELASTIC
2.1000e+05, 0.2000
*DENSITY
2.5000e+03
**
*MATERIAL, NAME=MAT_B450C
*ELASTIC
2.1000e+05, 0.3000
*DENSITY
7.8500e+03
**
*MATERIAL, NAME=MAT_DEFAULT
*ELASTIC
3.0000e+04, 0.2000
*SOLID SECTION, ELSET=E_OBJ_90_CARPENTERIA, MATERIAL=MAT_C25/30

*BEAM SECTION, ELSET=E_OBJ_91_BARRA, MATERIAL=MAT_B450C, SECTION=CIRC
0.008
0.0, 0.0, 1.0
*BEAM SECTION, ELSET=E_OBJ_92_BARRA, MATERIAL=MAT_B450C, SECTION=CIRC
0.008
0.0, 0.0, 1.0
*BEAM SECTION, ELSET=E_OBJ_93_BARRA, MATERIAL=MAT_B450C, SECTION=CIRC
0.008
0.0, 0.0, 1.0
*BEAM SECTION, ELSET=E_OBJ_94_BARRA, MATERIAL=MAT_B450C, SECTION=CIRC
0.008
0.0, 0.0, 1.0
*BEAM SECTION, ELSET=E_OBJ_95_BARRA, MATERIAL=MAT_B450C, SECTION=CIRC
0.008
0.0, 0.0, 1.0
*BEAM SECTION, ELSET=E_OBJ_96_BARRA, MATERIAL=MAT_B450C, SECTION=CIRC
0.008
0.0, 0.0, 1.0
*BEAM SECTION, ELSET=E_OBJ_97_BARRA, MATERIAL=MAT_B450C, SECTION=CIRC
0.008
0.0, 0.0, 1.0
*BEAM SECTION, ELSET=E_OBJ_98_BARRA, MATERIAL=MAT_B450C, SECTION=CIRC
0.008
0.0, 0.0, 1.0
*BEAM SECTION, ELSET=E_OBJ_99_BARRA, MATERIAL=MAT_B450C, SECTION=CIRC
0.008
0.0, 0.0, 1.0
*BEAM SECTION, ELSET=E_OBJ_100_BARRA, MATERIAL=MAT_B450C, SECTION=CIRC
0.008
0.0, 0.0, 1.0
*BEAM SECTION, ELSET=E_OBJ_101_BARRA, MATERIAL=MAT_B450C, SECTION=CIRC
0.008
0.0, 0.0, 1.0
*BEAM SECTION, ELSET=E_OBJ_102_BARRA, MATERIAL=MAT_B450C, SECTION=CIRC
0.008
0.0, 0.0, 1.0
*BEAM SECTION, ELSET=E_OBJ_103_BARRA, MATERIAL=MAT_B450C, SECTION=CIRC
0.008
0.0, 0.0, 1.0
*BEAM SECTION, ELSET=E_OBJ_104_BARRA, MATERIAL=MAT_B450C, SECTION=CIRC
0.008
0.0, 0.0, 1.0
*BEAM SECTION, ELSET=E_OBJ_105_BARRA, MATERIAL=MAT_B450C, SECTION=CIRC
0.008
0.0, 0.0, 1.0
*BEAM SECTION, ELSET=E_OBJ_106_BARRA, MATERIAL=MAT_B450C, SECTION=CIRC
0.008
0.0, 0.0, 1.0
*BEAM SECTION, ELSET=E_OBJ_107_STAFFA, MATERIAL=MAT_B450C, SECTION=CIRC
0.008
0.0, 0.0, 1.0
*BEAM SECTION, ELSET=E_OBJ_108_STAFFA, MATERIAL=MAT_B450C, SECTION=CIRC
0.008
0.0, 0.0, 1.0
*BEAM SECTION, ELSET=E_OBJ_109_STAFFA, MATERIAL=MAT_B450C, SECTION=CIRC
0.008
0.0, 0.0, 1.0
*BEAM SECTION, ELSET=E_OBJ_110_STAFFA, MATERIAL=MAT_B450C, SECTION=CIRC
0.008
0.0, 0.0, 1.0
**
** ============================================
** STEP DI ANALISI
** ============================================
*STEP
*STATIC
**
*NODE FILE
U
*EL FILE
S, E
*END STEP
