** CalculiX input file generato da SectionCHECK
** Elemento: Trave.002
** Nodi: 6721  Elementi: 5520
**
*NODE, NSET=NALL
1, 0.00000000e+00, -1.00000000e+00, 0.00000000e+00
2, 1.08695652e-01, -9.78260870e-01, 0.00000000e+00
3, 2.17391304e-01, -9.56521739e-01, 0.00000000e+00
4, 3.26086957e-01, -9.34782609e-01, 0.00000000e+00
5, 4.34782609e-01, -9.13043478e-01, 0.00000000e+00
6, 5.43478261e-01, -8.91304348e-01, 0.00000000e+00
7, 6.52173913e-01, -8.69565217e-01, 0.00000000e+00
8, 7.60869565e-01, -8.47826087e-01, 0.00000000e+00
9, 8.69565217e-01, -8.26086957e-01, 0.00000000e+00
10, 9.78260870e-01, -8.04347826e-01, 0.00000000e+00
11, 1.08695652e+00, -7.82608696e-01, 0.00000000e+00
12, 1.19565217e+00, -7.60869565e-01, 0.00000000e+00
13, 1.30434783e+00, -7.39130435e-01, 0.00000000e+00
14, 1.41304348e+00, -7.17391304e-01, 0.00000000e+00
15, 1.52173913e+00, -6.95652174e-01, 0.00000000e+00
16, 1.63043478e+00, -6.73913043e-01, 0.00000000e+00
17, 1.73913043e+00, -6.52173913e-01, 0.00000000e+00
18, 1.84782609e+00, -6.30434783e-01, 0.00000000e+00
19, 1.95652174e+00, -6.08695652e-01, 0.00000000e+00
20, 2.06521739e+00, -5.86956522e-01, 0.00000000e+00
** ... 6701 like lines cut
*ELEMENT, TYPE=C3D8I, ELSET=EALL_HEX
1, 1, 2, 49, 48, 612, 613, 660, 659
2, 2, 3, 50, 49, 613, 614, 661, 660
3, 3, 4, 51, 50, 614, 615, 662, 661
4, 4, 5, 52, 51, 615, 616, 663, 662
5, 5, 6, 53, 52, 616, 617, 664, 663
6, 6, 7, 54, 53, 617, 618, 665, 664
7, 7, 8, 55, 54, 618, 619, 666, 665
8, 8, 9, 56, 55, 619, 620, 667, 666
9, 9, 10, 57, 56, 620, 621, 668, 667
10, 10, 11, 58, 57, 621, 622, 669, 668
11, 11, 12, 59, 58, 622, 623, 670, 669
12, 12, 13, 60, 59, 623, 624, 671, 670
13, 13, 14, 61, 60, 624, 625, 672, 671
14, 14, 15, 62, 61, 625, 626, 673, 672
15, 15, 16, 63, 62, 626, 627, 674, 673
16, 16, 17, 64, 63, 627, 628, 675, 674
17, 17, 18, 65, 64, 628, 629, 676, 675
18, 18, 19, 66, 65, 629, 630, 677, 676
19, 19, 20, 67, 66, 630, 631, 678, 677
20, 20, 21, 68, 67, 631, 632, 679, 678
** ... 5500 like lines cut
*NSET, NSET=N_OBJ_115_CARPENTERIA
1, 2, 3, 4, 5, 6, 7, 8, 9, 10, 11, 12, 13, 14, 15, 16,
17, 18, 19, 20, 21, 22, 23, 24, 25, 26, 27, 28, 29, 30, 31, 32,
33, 34, 35, 36, 37, 38, 39, 40, 41, 42, 43, 44, 45, 46, 47, 48,
49, 50, 51, 52, 53, 54, 55, 56, 57, 58, 59, 60, 61, 62, 63, 64,
65, 66, 67, 68, 69, 70, 71, 72, 73, 74, 75, 76, 77, 78, 79, 80,
81, 82, 83, 84, 85, 86, 87, 88, 89, 90, 91, 92, 93, 94, 95, 96,
97, 98, 99, 100, 101, 102, 103, 104, 105, 106, 107, 108, 109, 110, 111, 112,
113, 114, 115, 116, 117, 118, 119, 120, 121, 122, 123, 124, 125, 126, 127, 128,
129, 130, 131, 132, 133, 134, 135, 136, 137, 138, 139, 140, 141, 142, 143, 144,
145, 146, 147, 148, 149, 150, 151, 152, 153, 154, 155, 156, 157, 158, 159, 160,
161, 162, 163, 164, 165, 166, 167, 168, 169, 170, 171, 172, 173, 174, 175, 176,
177, 178, 179, 180, 181, 182, 183, 184, 185, 186, 187, 188, 189, 190, 191, 192,
193, 194, 195, 196, 197, 198, 199, 200, 201, 202, 203, 204, 205, 206, 207, 208,
209, 210, 211, 212, 213, 214, 215, 216, 217, 218, 219, 220, 221, 222, 223, 224,
225, 226, 227, 228, 229, 230, 231, 232, 233, 234, 235, 236, 237, 238, 239, 240,
241, 242, 243, 244, 245, 246, 247, 248, 249, 250, 251, 252, 253, 254, 255, 256,
257, 258, 259, 260, 261, 262, 263, 264, 265, 266, 267, 268, 269, 270, 271, 272,
273, 274, 275, 276, 277, 278, 279, 280, 281, 282, 283, 284, 285, 286, 287, 288,
289, 290, 291, 292, 293, 294, 295, 296, 297, 298, 299, 300, 301, 302, 303, 304,
305, 306, 307, 308, 309, 310, 311, 312, 313, 314, 315, 316, 317, 318, 319, 320,
** ... 401 like lines cut
*ELSET, ELSET=E_OBJ_115_CARPENTERIA
1, 2, 3, 4, 5, 6, 7, 8, 9, 10, 11, 12, 13, 14, 15, 16,
17, 18, 19, 20, 21, 22, 23, 24, 25, 26, 27, 28, 29, 30, 31, 32,
33, 34, 35, 36, 37, 38, 39, 40, 41, 42, 43, 44, 45, 46, 47, 48,
49, 50, 51, 52, 53, 54, 55, 56, 57, 58, 59, 60, 61, 62, 63, 64,
65, 66, 67, 68, 69, 70, 71, 72, 73, 74, 75, 76, 77, 78, 79, 80,
81, 82, 83, 84, 85, 86, 87, 88, 89, 90, 91, 92, 93, 94, 95, 96,
97, 98, 99, 100, 101, 102, 103, 104, 105, 106, 107, 108, 109, 110, 111, 112,
113, 114, 115, 116, 117, 118, 119, 120, 121, 122, 123, 124, 125, 126, 127, 128,
129, 130, 131, 132, 133, 134, 135, 136, 137, 138, 139, 140, 141, 142, 143, 144,
145, 146, 147, 148, 149, 150, 151, 152, 153, 154, 155, 156, 157, 158, 159, 160,
161, 162, 163, 164, 165, 166, 167, 168, 169, 170, 171, 172, 173, 174, 175, 176,
177, 178, 179, 180, 181, 182, 183, 184, 185, 186, 187, 188, 189, 190, 191, 192,
193, 194, 195, 196, 197, 198, 199, 200, 201, 202, 203, 204, 205, 206, 207, 208,
209, 210, 211, 212, 213, 214, 215, 216, 217, 218, 219, 220, 221, 222, 223, 224,
225, 226, 227, 228, 229, 230, 231, 232, 233, 234, 235, 236, 237, 238, 239, 240,
241, 242, 243, 244, 245, 246, 247, 248, 249, 250, 251, 252, 253, 254, 255, 256,
257, 258, 259, 260, 261, 262, 263, 264, 265, 266, 267, 268, 269, 270, 271, 272,
273, 274, 275, 276, 277, 278, 279, 280, 281, 282, 283, 284, 285, 286, 287, 288,
289, 290, 291, 292, 293, 294, 295, 296, 297, 298, 299, 300, 301, 302, 303, 304,
305, 306, 307, 308, 309, 310, 311, 312, 313, 314, 315, 316, 317, 318, 319, 320,
** ... 325 like lines cut
**
*MATERIAL, NAME=MAT_C16/20
*ELASTIC
2.1000e+05, 0.2000
*DENSITY
2.5000e+03
**
*MATERIAL, NAME=MAT_DEFAULT
*ELASTIC
3.0000e+04, 0.2000
*SOLID SECTION, ELSET=E_OBJ_115_CARPENTERIA, MATERIAL=MAT_C16/20

**
** ============================================
** STEP DI ANALISI
** ============================================
*STEP
*STATIC
**
*NODE FILE
U
*EL FILE
S, E
*END STEP
