** CalculiX input file generato da SectionCHECK
** Elemento: Trave 0.30×0.50
** Nodi: 1728  Elementi: 1250
**
*NODE, NSET=NALL
1, 0.00000000e+00, 0.00000000e+00, 0.00000000e+00
2, 1.00000000e-01, 0.00000000e+00, 0.00000000e+00
3, 2.00000000e-01, 0.00000000e+00, 0.00000000e+00
4, 3.00000000e-01, 0.00000000e+00, 0.00000000e+00
5, 4.00000000e-01, 0.00000000e+00, 0.00000000e+00
6, 5.00000000e-01, 0.00000000e+00, 0.00000000e+00
7, 6.00000000e-01, 0.00000000e+00, 0.00000000e+00
8, 7.00000000e-01, 0.00000000e+00, 0.00000000e+00
9, 8.00000000e-01, 0.00000000e+00, 0.00000000e+00
10, 9.00000000e-01, 0.00000000e+00, 0.00000000e+00
11, 1.00000000e+00, 0.00000000e+00, 0.00000000e+00
12, 1.10000000e+00, 0.00000000e+00, 0.00000000e+00
13, 1.20000000e+00, 0.00000000e+00, 0.00000000e+00
14, 1.30000000e+00, 0.00000000e+00, 0.00000000e+00
15, 1.40000000e+00, 0.00000000e+00, 0.00000000e+00
16, 1.50000000e+00, 0.00000000e+00, 0.00000000e+00
17, 1.60000000e+00, 0.00000000e+00, 0.00000000e+00
18, 1.70000000e+00, 0.00000000e+00, 0.00000000e+00
19, 1.80000000e+00, 0.00000000e+00, 0.00000000e+00
20, 1.90000000e+00, 0.00000000e+00, 0.00000000e+00
** ... 1708 like lines cut
*ELEMENT, TYPE=C3D8, ELSET=EALL_HEX
1, 1, 2, 53, 52, 205, 206, 257, 256
2, 2, 3, 54, 53, 206, 207, 258, 257
3, 3, 4, 55, 54, 207, 208, 259, 258
4, 4, 5, 56, 55, 208, 209, 260, 259
5, 5, 6, 57, 56, 209, 210, 261, 260
6, 6, 7, 58, 57, 210, 211, 262, 261
7, 7, 8, 59, 58, 211, 212, 263, 262
8, 8, 9, 60, 59, 212, 213, 264, 263
9, 9, 10, 61, 60, 213, 214, 265, 264
10, 10, 11, 62, 61, 214, 215, 266, 265
11, 11, 12, 63, 62, 215, 216, 267, 266
12, 12, 13, 64, 63, 216, 217, 268, 267
13, 13, 14, 65, 64, 217, 218, 269, 268
14, 14, 15, 66, 65, 218, 219, 270, 269
15, 15, 16, 67, 66, 219, 220, 271, 270
16, 16, 17, 68, 67, 220, 221, 272, 271
17, 17, 18, 69, 68, 221, 222, 273, 272
18, 18, 19, 70, 69, 222, 223, 274, 273
19, 19, 20, 71, 70, 223, 224, 275, 274
20, 20, 21, 72, 71, 224, 225, 276, 275
** ... 730 like lines cut
*ELEMENT, TYPE=T3D2, ELSET=EALL_TRUSS
751, 1225, 1226
752, 1226, 1227
753, 1227, 1228
754, 1228, 1229
755, 1229, 1230
756, 1230, 1231
757, 1231, 1232
758, 1232, 1233
759, 1233, 1234
760, 1234, 1235
761, 1235, 1236
762, 1236, 1237
763, 1237, 1238
764, 1238, 1239
765, 1239, 1240
766, 1240, 1241
767, 1241, 1242
768, 1242, 1243
769, 1243, 1244
770, 1244, 1245
** ... 480 like lines cut
*NSET, NSET=N_OBJ_1_CARPENTERIA
1, 2, 3, 4, 5, 6, 7, 8, 9, 10, 11, 12, 13, 14, 15, 16,
17, 18, 19, 20, 21, 22, 23, 24, 25, 26, 27, 28, 29, 30, 31, 32,
33, 34, 35, 36, 37, 38, 39, 40, 41, 42, 43, 44, 45, 46, 47, 48,
49, 50, 51, 52, 53, 54, 55, 56, 57, 58, 59, 60, 61, 62, 63, 64,
65, 66, 67, 68, 69, 70, 71, 72, 73, 74, 75, 76, 77, 78, 79, 80,
81, 82, 83, 84, 85, 86, 87, 88, 89, 90, 91, 92, 93, 94, 95, 96,
97, 98, 99, 100, 101, 102, 103, 104, 105, 106, 107, 108, 109, 110, 111, 112,
113, 114, 115, 116, 117, 118, 119, 120, 121, 122, 123, 124, 125, 126, 127, 128,
129, 130, 131, 132, 133, 134, 135, 136, 137, 138, 139, 140, 141, 142, 143, 144,
145, 146, 147, 148, 149, 150, 151, 152, 153, 154, 155, 156, 157, 158, 159, 160,
161, 162, 163, 164, 165, 166, 167, 168, 169, 170, 171, 172, 173, 174, 175, 176,
177, 178, 179, 180, 181, 182, 183, 184, 185, 186, 187, 188, 189, 190, 191, 192,
193, 194, 195, 196, 197, 198, 199, 200, 201, 202, 203, 204, 205, 206, 207, 208,
209, 210, 211, 212, 213, 214, 215, 216, 217, 218, 219, 220, 221, 222, 223, 224,
225, 226, 227, 228, 229, 230, 231, 232, 233, 234, 235, 236, 237, 238, 239, 240,
241, 242, 243, 244, 245, 246, 247, 248, 249, 250, 251, 252, 253, 254, 255, 256,
257, 258, 259, 260, 261, 262, 263, 264, 265, 266, 267, 268, 269, 270, 271, 272,
273, 274, 275, 276, 277, 278, 279, 280, 281, 282, 283, 284, 285, 286, 287, 288,
289, 290, 291, 292, 293, 294, 295, 296, 297, 298, 299, 300, 301, 302, 303, 304,
305, 306, 307, 308, 309, 310, 311, 312, 313, 314, 315, 316, 317, 318, 319, 320,
** ... 57 like lines cut
*ELSET, ELSET=E_OBJ_1_CARPENTERIA
1, 2, 3, 4, 5, 6, 7, 8, 9, 10, 11, 12, 13, 14, 15, 16,
17, 18, 19, 20, 21, 22, 23, 24, 25, 26, 27, 28, 29, 30, 31, 32,
33, 34, 35, 36, 37, 38, 39, 40, 41, 42, 43, 44, 45, 46, 47, 48,
49, 50, 51, 52, 53, 54, 55, 56, 57, 58, 59, 60, 61, 62, 63, 64,
65, 66, 67, 68, 69, 70, 71, 72, 73, 74, 75, 76, 77, 78, 79, 80,
81, 82, 83, 84, 85, 86, 87, 88, 89, 90, 91, 92, 93, 94, 95, 96,
97, 98, 99, 100, 101, 102, 103, 104, 105, 106, 107, 108, 109, 110, 111, 112,
113, 114, 115, 116, 117, 118, 119, 120, 121, 122, 123, 124, 125, 126, 127, 128,
129, 130, 131, 132, 133, 134, 135, 136, 137, 138, 139, 140, 141, 142, 143, 144,
145, 146, 147, 148, 149, 150, 151, 152, 153, 154, 155, 156, 157, 158, 159, 160,
161, 162, 163, 164, 165, 166, 167, 168, 169, 170, 171, 172, 173, 174, 175, 176,
177, 178, 179, 180, 181, 182, 183, 184, 185, 186, 187, 188, 189, 190, 191, 192,
193, 194, 195, 196, 197, 198, 199, 200, 201, 202, 203, 204, 205, 206, 207, 208,
209, 210, 211, 212, 213, 214, 215, 216, 217, 218, 219, 220, 221, 222, 223, 224,
225, 226, 227, 228, 229, 230, 231, 232, 233, 234, 235, 236, 237, 238, 239, 240,
241, 242, 243, 244, 245, 246, 247, 248, 249, 250, 251, 252, 253, 254, 255, 256,
257, 258, 259, 260, 261, 262, 263, 264, 265, 266, 267, 268, 269, 270, 271, 272,
273, 274, 275, 276, 277, 278, 279, 280, 281, 282, 283, 284, 285, 286, 287, 288,
289, 290, 291, 292, 293, 294, 295, 296, 297, 298, 299, 300, 301, 302, 303, 304,
305, 306, 307, 308, 309, 310, 311, 312, 313, 314, 315, 316, 317, 318, 319, 320,
** ... 27 like lines cut
*NSET, NSET=N_OBJ_2_BARRA
1225, 1226, 1227, 1228, 1229, 1230, 1231, 1232, 1233, 1234, 1235, 1236, 1237, 1238, 1239, 1240,
1241, 1242, 1243, 1244, 1245, 1246, 1247, 1248, 1249, 1250, 1251, 1252, 1253, 1254, 1255, 1256,
1257, 1258, 1259, 1260, 1261, 1262, 1263, 1264, 1265, 1266, 1267, 1268, 1269, 1270, 1271, 1272,
1273, 1274, 1275
*ELSET, ELSET=E_OBJ_2_BARRA
751, 752, 753, 754, 755, 756, 757, 758, 759, 760, 761, 762, 763, 764, 765, 766,
767, 768, 769, 770, 771, 772, 773, 774, 775, 776, 777, 778, 779, 780, 781, 782,
783, 784, 785, 786, 787, 788, 789, 790, 791, 792, 793, 794, 795, 796, 797, 798,
799, 800
*NSET, NSET=N_OBJ_3_BARRA
1276, 1277, 1278, 1279, 1280, 1281, 1282, 1283, 1284, 1285, 1286, 1287, 1288, 1289, 1290, 1291,
1292, 1293, 1294, 1295, 1296, 1297, 1298, 1299, 1300, 1301, 1302, 1303, 1304, 1305, 1306, 1307,
1308, 1309, 1310, 1311, 1312, 1313, 1314, 1315, 1316, 1317, 1318, 1319, 1320, 1321, 1322, 1323,
1324, 1325, 1326
*ELSET, ELSET=E_OBJ_3_BARRA
801, 802, 803, 804, 805, 806, 807, 808, 809, 810, 811, 812, 813, 814, 815, 816,
817, 818, 819, 820, 821, 822, 823, 824, 825, 826, 827, 828, 829, 830, 831, 832,
833, 834, 835, 836, 837, 838, 839, 840, 841, 842, 843, 844, 845, 846, 847, 848,
849, 850
*NSET, NSET=N_OBJ_4_BARRA
1327, 1328, 1329, 1330, 1331, 1332, 1333, 1334, 1335, 1336, 1337, 1338, 1339, 1340, 1341, 1342,
1343, 1344, 1345, 1346, 1347, 1348, 1349, 1350, 1351, 1352, 1353, 1354, 1355, 1356, 1357, 1358,
1359, 1360, 1361, 1362, 1363, 1364, 1365, 1366, 1367, 1368, 1369, 1370, 1371, 1372, 1373, 1374,
1375, 1376, 1377
*ELSET, ELSET=E_OBJ_4_BARRA
851, 852, 853, 854, 855, 856, 857, 858, 859, 860, 861, 862, 863, 864, 865, 866,
867, 868, 869, 870, 871, 872, 873, 874, 875, 876, 877, 878, 879, 880, 881, 882,
883, 884, 885, 886, 887, 888, 889, 890, 891, 892, 893, 894, 895, 896, 897, 898,
899, 900
*NSET, NSET=N_OBJ_5_BARRA
1378, 1379, 1380, 1381, 1382, 1383, 1384, 1385, 1386, 1387, 1388, 1389, 1390, 1391, 1392, 1393,
1394, 1395, 1396, 1397, 1398, 1399, 1400, 1401, 1402, 1403, 1404, 1405, 1406, 1407, 1408, 1409,
1410, 1411, 1412, 1413, 1414, 1415, 1416, 1417, 1418, 1419, 1420, 1421, 1422, 1423, 1424, 1425,
1426, 1427, 1428
*ELSET, ELSET=E_OBJ_5_BARRA
901, 902, 903, 904, 905, 906, 907, 908, 909, 910, 911, 912, 913, 914, 915, 916,
917, 918, 919, 920, 921, 922, 923, 924, 925, 926, 927, 928, 929, 930, 931, 932,
933, 934, 935, 936, 937, 938, 939, 940, 941, 942, 943, 944, 945, 946, 947, 948,
949, 950
*NSET, NSET=N_OBJ_6_STAFFA
1429, 1430, 1431, 1432, 1433, 1434, 1435, 1436, 1437, 1438, 1439, 1440
*ELSET, ELSET=E_OBJ_6_STAFFA
951, 952, 953, 954, 955, 956, 957, 958, 959, 960, 961, 962
*NSET, NSET=N_OBJ_7_STAFFA
1441, 1442, 1443, 1444, 1445, 1446, 1447, 1448, 1449, 1450, 1451, 1452
*ELSET, ELSET=E_OBJ_7_STAFFA
963, 964, 965, 966, 967, 968, 969, 970, 971, 972, 973, 974
*NSET, NSET=N_OBJ_8_STAFFA
1453, 1454, 1455, 1456, 1457, 1458, 1459, 1460, 1461, 1462, 1463, 1464
*ELSET, ELSET=E_OBJ_8_STAFFA
975, 976, 977, 978, 979, 980, 981, 982, 983, 984, 985, 986
*NSET, NSET=N_OBJ_9_STAFFA
1465, 1466, 1467, 1468, 1469, 1470, 1471, 1472, 1473, 1474, 1475, 1476
*ELSET, ELSET=E_OBJ_9_STAFFA
987, 988, 989, 990, 991, 992, 993, 994, 995, 996, 997, 998
*NSET, NSET=N_OBJ_10_STAFFA
1477, 1478, 1479, 1480, 1481, 1482, 1483, 1484, 1485, 1486, 1487, 1488
*ELSET, ELSET=E_OBJ_10_STAFFA
999, 1000, 1001, 1002, 1003, 1004, 1005, 1006, 1007, 1008, 1009, 1010
*NSET, NSET=N_OBJ_11_STAFFA
1489, 1490, 1491, 1492, 1493, 1494, 1495, 1496, 1497, 1498, 1499, 1500
*ELSET, ELSET=E_OBJ_11_STAFFA
1011, 1012, 1013, 1014, 1015, 1016, 1017, 1018, 1019, 1020, 1021, 1022
*NSET, NSET=N_OBJ_12_STAFFA
1501, 1502, 1503, 1504, 1505, 1506, 1507, 1508, 1509, 1510, 1511, 1512
*ELSET, ELSET=E_OBJ_12_STAFFA
1023, 1024, 1025, 1026, 1027, 1028, 1029, 1030, 1031, 1032, 1033, 1034
*NSET, NSET=N_OBJ_13_STAFFA
1513, 1514, 1515, 1516, 1517, 1518, 1519, 1520, 1521, 1522, 1523, 1524
*ELSET, ELSET=E_OBJ_13_STAFFA
1035, 1036, 1037, 1038, 1039, 1040, 1041, 1042, 1043, 1044, 1045, 1046
*NSET, NSET=N_OBJ_14_STAFFA
1525, 1526, 1527, 1528, 1529, 1530, 1531, 1532, 1533, 1534, 1535, 1536
*ELSET, ELSET=E_OBJ_14_STAFFA
1047, 1048, 1049, 1050, 1051, 1052, 1053, 1054, 1055, 1056, 1057, 1058
*NSET, NSET=N_OBJ_15_STAFFA
1537, 1538, 1539, 1540, 1541, 1542, 1543, 1544, 1545, 1546, 1547, 1548
*ELSET, ELSET=E_OBJ_15_STAFFA
1059, 1060, 1061, 1062, 1063, 1064, 1065, 1066, 1067, 1068, 1069, 1070
*NSET, NSET=N_OBJ_16_STAFFA
1549, 1550, 1551, 1552, 1553, 1554, 1555, 1556, 1557, 1558, 1559, 1560
*ELSET, ELSET=E_OBJ_16_STAFFA
1071, 1072, 1073, 1074, 1075, 1076, 1077, 1078, 1079, 1080, 1081, 1082
*NSET, NSET=N_OBJ_17_STAFFA
1561, 1562, 1563, 1564, 1565, 1566, 1567, 1568, 1569, 1570, 1571, 1572
*ELSET, ELSET=E_OBJ_17_STAFFA
1083, 1084, 1085, 1086, 1087, 1088, 1089, 1090, 1091, 1092, 1093, 1094
*NSET, NSET=N_OBJ_18_STAFFA
1573, 1574, 1575, 1576, 1577, 1578, 1579, 1580, 1581, 1582, 1583, 1584
*ELSET, ELSET=E_OBJ_18_STAFFA
1095, 1096, 1097, 1098, 1099, 1100, 1101, 1102, 1103, 1104, 1105, 1106
*NSET, NSET=N_OBJ_19_STAFFA
1585, 1586, 1587, 1588, 1589, 1590, 1591, 1592, 1593, 1594, 1595, 1596
*ELSET, ELSET=E_OBJ_19_STAFFA
1107, 1108, 1109, 1110, 1111, 1112, 1113, 1114, 1115, 1116, 1117, 1118
*NSET, NSET=N_OBJ_20_STAFFA
1597, 1598, 1599, 1600, 1601, 1602, 1603, 1604, 1605, 1606, 1607, 1608
*ELSET, ELSET=E_OBJ_20_STAFFA
1119, 1120, 1121, 1122, 1123, 1124, 1125, 1126, 1127, 1128, 1129, 1130
*NSET, NSET=N_OBJ_21_STAFFA
1609, 1610, 1611, 1612, 1613, 1614, 1615, 1616, 1617, 1618, 1619, 1620
*ELSET, ELSET=E_OBJ_21_STAFFA
1131, 1132, 1133, 1134, 1135, 1136, 1137, 1138, 1139, 1140, 1141, 1142
*NSET, NSET=N_OBJ_22_STAFFA
1621, 1622, 1623, 1624, 1625, 1626, 1627, 1628, 1629, 1630, 1631, 1632
*ELSET, ELSET=E_OBJ_22_STAFFA
1143, 1144, 1145, 1146, 1147, 1148, 1149, 1150, 1151, 1152, 1153, 1154
*NSET, NSET=N_OBJ_23_STAFFA
1633, 1634, 1635, 1636, 1637, 1638, 1639, 1640, 1641, 1642, 1643, 1644
*ELSET, ELSET=E_OBJ_23_STAFFA
1155, 1156, 1157, 1158, 1159, 1160, 1161, 1162, 1163, 1164, 1165, 1166
*NSET, NSET=N_OBJ_24_STAFFA
1645, 1646, 1647, 1648, 1649, 1650, 1651, 1652, 1653, 1654, 1655, 1656
*ELSET, ELSET=E_OBJ_24_STAFFA
1167, 1168, 1169, 1170, 1171, 1172, 1173, 1174, 1175, 1176, 1177, 1178
*NSET, NSET=N_OBJ_25_STAFFA
1657, 1658, 1659, 1660, 1661, 1662, 1663, 1664, 1665, 1666, 1667, 1668
*ELSET, ELSET=E_OBJ_25_STAFFA
1179, 1180, 1181, 1182, 1183, 1184, 1185, 1186, 1187, 1188, 1189, 1190
*NSET, NSET=N_OBJ_26_STAFFA
1669, 1670, 1671, 1672, 1673, 1674, 1675, 1676, 1677, 1678, 1679, 1680
*ELSET, ELSET=E_OBJ_26_STAFFA
1191, 1192, 1193, 1194, 1195, 1196, 1197, 1198, 1199, 1200, 1201, 1202
*NSET, NSET=N_OBJ_27_STAFFA
1681, 1682, 1683, 1684, 1685, 1686, 1687, 1688, 1689, 1690, 1691, 1692
*ELSET, ELSET=E_OBJ_27_STAFFA
1203, 1204, 1205, 1206, 1207, 1208, 1209, 1210, 1211, 1212, 1213, 1214
*NSET, NSET=N_OBJ_28_STAFFA
1693, 1694, 1695, 1696, 1697, 1698, 1699, 1700, 1701, 1702, 1703, 1704
*ELSET, ELSET=E_OBJ_28_STAFFA
1215, 1216, 1217, 1218, 1219, 1220, 1221, 1222, 1223, 1224, 1225, 1226
*NSET, NSET=N_OBJ_29_STAFFA
1705, 1706, 1707, 1708, 1709, 1710, 1711, 1712, 1713, 1714, 1715, 1716
*ELSET, ELSET=E_OBJ_29_STAFFA
1227, 1228, 1229, 1230, 1231, 1232, 1233, 1234, 1235, 1236, 1237, 1238
*NSET, NSET=N_OBJ_30_STAFFA
1717, 1718, 1719, 1720, 1721, 1722, 1723, 1724, 1725, 1726, 1727, 1728
*ELSET, ELSET=E_OBJ_30_STAFFA
1239, 1240, 1241, 1242, 1243, 1244, 1245, 1246, 1247, 1248, 1249, 1250
*NSET, NSET=N_VINCOLATI
1, 51, 52, 102, 103, 153, 154, 204, 205, 255, 256, 306, 307, 357, 358, 408,
409, 459, 460, 510, 511, 561, 562, 612, 613, 663, 664, 714, 715, 765, 766, 816,
817, 867, 868, 918, 919, 969, 970, 1020, 1021, 1071, 1072, 1122, 1123, 1173, 1174, 1224,
1225, 1275, 1276, 1326, 1327, 1377, 1378, 1428
*NSET, NSET=N_CARICATI
21, 22, 23, 24, 25, 26, 27, 28, 29, 30, 31, 72, 73, 74, 75, 76,
77, 78, 79, 80, 81, 82, 123, 124, 125, 126, 127, 128, 129, 130, 131, 132,
133, 174, 175, 176, 177, 178, 179, 180, 181, 182, 183, 184, 225, 226, 227, 228,
229, 230, 231, 232, 233, 234, 235, 276, 277, 278, 279, 280, 281, 282, 283, 284,
285, 286, 327, 328, 329, 330, 331, 332, 333, 334, 335, 336, 337, 378, 379, 380,
381, 382, 383, 384, 385, 386, 387, 388, 429, 430, 431, 432, 433, 434, 435, 436,
437, 438, 439, 480, 481, 482, 483, 484, 485, 486, 487, 488, 489, 490, 531, 532,
533, 534, 535, 536, 537, 538, 539, 540, 541, 582, 583, 584, 585, 586, 587, 588,
589, 590, 591, 592, 633, 634, 635, 636, 637, 638, 639, 640, 641, 642, 643, 684,
685, 686, 687, 688, 689, 690, 691, 692, 693, 694, 735, 736, 737, 738, 739, 740,
741, 742, 743, 744, 745, 786, 787, 788, 789, 790, 791, 792, 793, 794, 795, 796,
837, 838, 839, 840, 841, 842, 843, 844, 845, 846, 847, 888, 889, 890, 891, 892,
893, 894, 895, 896, 897, 898, 939, 940, 941, 942, 943, 944, 945, 946, 947, 948,
949, 990, 991, 992, 993, 994, 995, 996, 997, 998, 999, 1000, 1041, 1042, 1043, 1044,
1045, 1046, 1047, 1048, 1049, 1050, 1051, 1092, 1093, 1094, 1095, 1096, 1097, 1098, 1099, 1100,
1101, 1102, 1143, 1144, 1145, 1146, 1147, 1148, 1149, 1150, 1151, 1152, 1153, 1194, 1195, 1196,
1197, 1198, 1199, 1200, 1201, 1202, 1203, 1204, 1245, 1246, 1247, 1248, 1249, 1250, 1251, 1252,
1253, 1254, 1255, 1296, 1297, 1298, 1299, 1300, 1301, 1302, 1303, 1304, 1305, 1306, 1347, 1348,
1349, 1350, 1351, 1352, 1353, 1354, 1355, 1356, 1357, 1398, 1399, 1400, 1401, 1402, 1403, 1404,
1405, 1406, 1407, 1408, 1549, 1550, 1551, 1552, 1553, 1554, 1555, 1556, 1557, 1558, 1559, 1560,
1561, 1562, 1563, 1564, 1565, 1566, 1567, 1568, 1569, 1570, 1571, 1572, 1573, 1574, 1575, 1576,
1577, 1578, 1579, 1580, 1581, 1582, 1583, 1584, 1585, 1586, 1587, 1588, 1589, 1590, 1591, 1592,
1593, 1594, 1595, 1596, 1597, 1598, 1599, 1600, 1601, 1602, 1603, 1604, 1605, 1606, 1607, 1608
**
*MATERIAL, NAME=MAT_C25_30
*ELASTIC
3.1476e+10, 0.2000
*DENSITY
2.5000e+03
**
*MATERIAL, NAME=MAT_B450C
*ELASTIC
2.0000e+11, 0.3000
*DENSITY
7.8500e+03
**
*MATERIAL, NAME=MAT_DEFAULT
*ELASTIC
3.0000e+10, 0.2000
*SOLID SECTION, ELSET=E_OBJ_1_CARPENTERIA, MATERIAL=MAT_C25_30

*SOLID SECTION, ELSET=E_OBJ_2_BARRA, MATERIAL=MAT_B450C
0.0002010619
*SOLID SECTION, ELSET=E_OBJ_3_BARRA, MATERIAL=MAT_B450C
0.0002010619
*SOLID SECTION, ELSET=E_OBJ_4_BARRA, MATERIAL=MAT_B450C
0.0002010619
*SOLID SECTION, ELSET=E_OBJ_5_BARRA, MATERIAL=MAT_B450C
0.0002010619
*SOLID SECTION, ELSET=E_OBJ_6_STAFFA, MATERIAL=MAT_B450C
0.0000502655
*SOLID SECTION, ELSET=E_OBJ_7_STAFFA, MATERIAL=MAT_B450C
0.0000502655
*SOLID SECTION, ELSET=E_OBJ_8_STAFFA, MATERIAL=MAT_B450C
0.0000502655
*SOLID SECTION, ELSET=E_OBJ_9_STAFFA, MATERIAL=MAT_B450C
0.0000502655
*SOLID SECTION, ELSET=E_OBJ_10_STAFFA, MATERIAL=MAT_B450C
0.0000502655
*SOLID SECTION, ELSET=E_OBJ_11_STAFFA, MATERIAL=MAT_B450C
0.0000502655
*SOLID SECTION, ELSET=E_OBJ_12_STAFFA, MATERIAL=MAT_B450C
0.0000502655
*SOLID SECTION, ELSET=E_OBJ_13_STAFFA, MATERIAL=MAT_B450C
0.0000502655
*SOLID SECTION, ELSET=E_OBJ_14_STAFFA, MATERIAL=MAT_B450C
0.0000502655
*SOLID SECTION, ELSET=E_OBJ_15_STAFFA, MATERIAL=MAT_B450C
0.0000502655
*SOLID SECTION, ELSET=E_OBJ_16_STAFFA, MATERIAL=MAT_B450C
0.0000502655
*SOLID SECTION, ELSET=E_OBJ_17_STAFFA, MATERIAL=MAT_B450C
0.0000502655
*SOLID SECTION, ELSET=E_OBJ_18_STAFFA, MATERIAL=MAT_B450C
0.0000502655
*SOLID SECTION, ELSET=E_OBJ_19_STAFFA, MATERIAL=MAT_B450C
0.0000502655
*SOLID SECTION, ELSET=E_OBJ_20_STAFFA, MATERIAL=MAT_B450C
0.0000502655
*SOLID SECTION, ELSET=E_OBJ_21_STAFFA, MATERIAL=MAT_B450C
0.0000502655
*SOLID SECTION, ELSET=E_OBJ_22_STAFFA, MATERIAL=MAT_B450C
0.0000502655
*SOLID SECTION, ELSET=E_OBJ_23_STAFFA, MATERIAL=MAT_B450C
0.0000502655
*SOLID SECTION, ELSET=E_OBJ_24_STAFFA, MATERIAL=MAT_B450C
0.0000502655
*SOLID SECTION, ELSET=E_OBJ_25_STAFFA, MATERIAL=MAT_B450C
** ... 11 like lines cut
**
** ============================================
** STEP DI ANALISI
** ============================================
*STEP
*STATIC
**
** VINCOLI
*BOUNDARY
1, 1, 1, 0.00000000e+00
1, 2, 2, 0.00000000e+00
1, 3, 3, 0.00000000e+00
52, 1, 1, 0.00000000e+00
52, 2, 2, 0.00000000e+00
52, 3, 3, 0.00000000e+00
103, 1, 1, 0.00000000e+00
103, 2, 2, 0.00000000e+00
103, 3, 3, 0.00000000e+00
154, 1, 1, 0.00000000e+00
154, 2, 2, 0.00000000e+00
154, 3, 3, 0.00000000e+00
205, 1, 1, 0.00000000e+00
205, 2, 2, 0.00000000e+00
205, 3, 3, 0.00000000e+00
256, 1, 1, 0.00000000e+00
256, 2, 2, 0.00000000e+00
256, 3, 3, 0.00000000e+00
307, 1, 1, 0.00000000e+00
307, 2, 2, 0.00000000e+00
** ... 148 like lines cut
**
** CARICHI (kN -> N)
*CLOAD
21, 3, -5.43478261e+02
22, 3, -5.43478261e+02
23, 3, -5.43478261e+02
24, 3, -5.43478261e+02
25, 3, -5.43478261e+02
26, 3, -5.43478261e+02
27, 3, -5.43478261e+02
28, 3, -5.43478261e+02
29, 3, -5.43478261e+02
30, 3, -5.43478261e+02
31, 3, -5.43478261e+02
72, 3, -5.43478261e+02
73, 3, -5.43478261e+02
74, 3, -5.43478261e+02
75, 3, -5.43478261e+02
76, 3, -5.43478261e+02
77, 3, -5.43478261e+02
78, 3, -5.43478261e+02
79, 3, -5.43478261e+02
80, 3, -5.43478261e+02
** ... 348 like lines cut
**
*NODE FILE
U
*EL FILE
S, E
*END STEP
