** CalculiX input file generato da SectionCHECK
** Elemento: Trave 0.25×0.40
** Nodi: 4492  Elementi: 3454
**
*NODE, NSET=NALL
1, 0.00000000e+00, 0.00000000e+00, 0.00000000e+00
2, 5.00000000e-02, 0.00000000e+00, 0.00000000e+00
3, 1.00000000e-01, 0.00000000e+00, 0.00000000e+00
4, 1.50000000e-01, 0.00000000e+00, 0.00000000e+00
5, 2.00000000e-01, 0.00000000e+00, 0.00000000e+00
6, 2.50000000e-01, 0.00000000e+00, 0.00000000e+00
7, 3.00000000e-01, 0.00000000e+00, 0.00000000e+00
8, 3.50000000e-01, 0.00000000e+00, 0.00000000e+00
9, 4.00000000e-01, 0.00000000e+00, 0.00000000e+00
10, 4.50000000e-01, 0.00000000e+00, 0.00000000e+00
11, 5.00000000e-01, 0.00000000e+00, 0.00000000e+00
12, 5.50000000e-01, 0.00000000e+00, 0.00000000e+00
13, 6.00000000e-01, 0.00000000e+00, 0.00000000e+00
14, 6.50000000e-01, 0.00000000e+00, 0.00000000e+00
15, 7.00000000e-01, 0.00000000e+00, 0.00000000e+00
16, 7.50000000e-01, 0.00000000e+00, 0.00000000e+00
17, 8.00000000e-01, 0.00000000e+00, 0.00000000e+00
18, 8.50000000e-01, 0.00000000e+00, 0.00000000e+00
19, 9.00000000e-01, 0.00000000e+00, 0.00000000e+00
20, 9.50000000e-01, 0.00000000e+00, 0.00000000e+00
** ... 4472 like lines cut
*ELEMENT, TYPE=C3D8, ELSET=EALL_HEX
1, 1, 2, 73, 72, 427, 428, 499, 498
2, 2, 3, 74, 73, 428, 429, 500, 499
3, 3, 4, 75, 74, 429, 430, 501, 500
4, 4, 5, 76, 75, 430, 431, 502, 501
5, 5, 6, 77, 76, 431, 432, 503, 502
6, 6, 7, 78, 77, 432, 433, 504, 503
7, 7, 8, 79, 78, 433, 434, 505, 504
8, 8, 9, 80, 79, 434, 435, 506, 505
9, 9, 10, 81, 80, 435, 436, 507, 506
10, 10, 11, 82, 81, 436, 437, 508, 507
11, 11, 12, 83, 82, 437, 438, 509, 508
12, 12, 13, 84, 83, 438, 439, 510, 509
13, 13, 14, 85, 84, 439, 440, 511, 510
14, 14, 15, 86, 85, 440, 441, 512, 511
15, 15, 16, 87, 86, 441, 442, 513, 512
16, 16, 17, 88, 87, 442, 443, 514, 513
17, 17, 18, 89, 88, 443, 444, 515, 514
18, 18, 19, 90, 89, 444, 445, 516, 515
19, 19, 20, 91, 90, 445, 446, 517, 516
20, 20, 21, 92, 91, 446, 447, 518, 517
** ... 2780 like lines cut
*ELEMENT, TYPE=T3D2, ELSET=EALL_TRUSS
2801, 3835, 3836
2802, 3836, 3837
2803, 3837, 3838
2804, 3838, 3839
2805, 3839, 3840
2806, 3840, 3841
2807, 3841, 3842
2808, 3842, 3843
2809, 3843, 3844
2810, 3844, 3845
2811, 3845, 3846
2812, 3846, 3847
2813, 3847, 3848
2814, 3848, 3849
2815, 3849, 3850
2816, 3850, 3851
2817, 3851, 3852
2818, 3852, 3853
2819, 3853, 3854
2820, 3854, 3855
** ... 634 like lines cut
*NSET, NSET=N_OBJ_31_CARPENTERIA
1, 2, 3, 4, 5, 6, 7, 8, 9, 10, 11, 12, 13, 14, 15, 16,
17, 18, 19, 20, 21, 22, 23, 24, 25, 26, 27, 28, 29, 30, 31, 32,
33, 34, 35, 36, 37, 38, 39, 40, 41, 42, 43, 44, 45, 46, 47, 48,
49, 50, 51, 52, 53, 54, 55, 56, 57, 58, 59, 60, 61, 62, 63, 64,
65, 66, 67, 68, 69, 70, 71, 72, 73, 74, 75, 76, 77, 78, 79, 80,
81, 82, 83, 84, 85, 86, 87, 88, 89, 90, 91, 92, 93, 94, 95, 96,
97, 98, 99, 100, 101, 102, 103, 104, 105, 106, 107, 108, 109, 110, 111, 112,
113, 114, 115, 116, 117, 118, 119, 120, 121, 122, 123, 124, 125, 126, 127, 128,
129, 130, 131, 132, 133, 134, 135, 136, 137, 138, 139, 140, 141, 142, 143, 144,
145, 146, 147, 148, 149, 150, 151, 152, 153, 154, 155, 156, 157, 158, 159, 160,
161, 162, 163, 164, 165, 166, 167, 168, 169, 170, 171, 172, 173, 174, 175, 176,
177, 178, 179, 180, 181, 182, 183, 184, 185, 186, 187, 188, 189, 190, 191, 192,
193, 194, 195, 196, 197, 198, 199, 200, 201, 202, 203, 204, 205, 206, 207, 208,
209, 210, 211, 212, 213, 214, 215, 216, 217, 218, 219, 220, 221, 222, 223, 224,
225, 226, 227, 228, 229, 230, 231, 232, 233, 234, 235, 236, 237, 238, 239, 240,
241, 242, 243, 244, 245, 246, 247, 248, 249, 250, 251, 252, 253, 254, 255, 256,
257, 258, 259, 260, 261, 262, 263, 264, 265, 266, 267, 268, 269, 270, 271, 272,
273, 274, 275, 276, 277, 278, 279, 280, 281, 282, 283, 284, 285, 286, 287, 288,
289, 290, 291, 292, 293, 294, 295, 296, 297, 298, 299, 300, 301, 302, 303, 304,
305, 306, 307, 308, 309, 310, 311, 312, 313, 314, 315, 316, 317, 318, 319, 320,
** ... 220 like lines cut
*ELSET, ELSET=E_OBJ_31_CARPENTERIA
1, 2, 3, 4, 5, 6, 7, 8, 9, 10, 11, 12, 13, 14, 15, 16,
17, 18, 19, 20, 21, 22, 23, 24, 25, 26, 27, 28, 29, 30, 31, 32,
33, 34, 35, 36, 37, 38, 39, 40, 41, 42, 43, 44, 45, 46, 47, 48,
49, 50, 51, 52, 53, 54, 55, 56, 57, 58, 59, 60, 61, 62, 63, 64,
65, 66, 67, 68, 69, 70, 71, 72, 73, 74, 75, 76, 77, 78, 79, 80,
81, 82, 83, 84, 85, 86, 87, 88, 89, 90, 91, 92, 93, 94, 95, 96,
97, 98, 99, 100, 101, 102, 103, 104, 105, 106, 107, 108, 109, 110, 111, 112,
113, 114, 115, 116, 117, 118, 119, 120, 121, 122, 123, 124, 125, 126, 127, 128,
129, 130, 131, 132, 133, 134, 135, 136, 137, 138, 139, 140, 141, 142, 143, 144,
145, 146, 147, 148, 149, 150, 151, 152, 153, 154, 155, 156, 157, 158, 159, 160,
161, 162, 163, 164, 165, 166, 167, 168, 169, 170, 171, 172, 173, 174, 175, 176,
177, 178, 179, 180, 181, 182, 183, 184, 185, 186, 187, 188, 189, 190, 191, 192,
193, 194, 195, 196, 197, 198, 199, 200, 201, 202, 203, 204, 205, 206, 207, 208,
209, 210, 211, 212, 213, 214, 215, 216, 217, 218, 219, 220, 221, 222, 223, 224,
225, 226, 227, 228, 229, 230, 231, 232, 233, 234, 235, 236, 237, 238, 239, 240,
241, 242, 243, 244, 245, 246, 247, 248, 249, 250, 251, 252, 253, 254, 255, 256,
257, 258, 259, 260, 261, 262, 263, 264, 265, 266, 267, 268, 269, 270, 271, 272,
273, 274, 275, 276, 277, 278, 279, 280, 281, 282, 283, 284, 285, 286, 287, 288,
289, 290, 291, 292, 293, 294, 295, 296, 297, 298, 299, 300, 301, 302, 303, 304,
305, 306, 307, 308, 309, 310, 311, 312, 313, 314, 315, 316, 317, 318, 319, 320,
** ... 155 like lines cut
*NSET, NSET=N_OBJ_32_BARRA
3835, 3836, 3837, 3838, 3839, 3840, 3841, 3842, 3843, 3844, 3845, 3846, 3847, 3848, 3849, 3850,
3851, 3852, 3853, 3854, 3855, 3856, 3857, 3858, 3859, 3860, 3861, 3862, 3863, 3864, 3865, 3866,
3867, 3868, 3869, 3870, 3871, 3872, 3873, 3874, 3875, 3876, 3877, 3878, 3879, 3880, 3881, 3882,
3883, 3884, 3885, 3886, 3887, 3888, 3889, 3890, 3891, 3892, 3893, 3894, 3895, 3896, 3897, 3898,
3899, 3900, 3901, 3902, 3903, 3904, 3905
*ELSET, ELSET=E_OBJ_32_BARRA
2801, 2802, 2803, 2804, 2805, 2806, 2807, 2808, 2809, 2810, 2811, 2812, 2813, 2814, 2815, 2816,
2817, 2818, 2819, 2820, 2821, 2822, 2823, 2824, 2825, 2826, 2827, 2828, 2829, 2830, 2831, 2832,
2833, 2834, 2835, 2836, 2837, 2838, 2839, 2840, 2841, 2842, 2843, 2844, 2845, 2846, 2847, 2848,
2849, 2850, 2851, 2852, 2853, 2854, 2855, 2856, 2857, 2858, 2859, 2860, 2861, 2862, 2863, 2864,
2865, 2866, 2867, 2868, 2869, 2870
*NSET, NSET=N_OBJ_33_BARRA
3906, 3907, 3908, 3909, 3910, 3911, 3912, 3913, 3914, 3915, 3916, 3917, 3918, 3919, 3920, 3921,
3922, 3923, 3924, 3925, 3926, 3927, 3928, 3929, 3930, 3931, 3932, 3933, 3934, 3935, 3936, 3937,
3938, 3939, 3940, 3941, 3942, 3943, 3944, 3945, 3946, 3947, 3948, 3949, 3950, 3951, 3952, 3953,
3954, 3955, 3956, 3957, 3958, 3959, 3960, 3961, 3962, 3963, 3964, 3965, 3966, 3967, 3968, 3969,
3970, 3971, 3972, 3973, 3974, 3975, 3976
*ELSET, ELSET=E_OBJ_33_BARRA
2871, 2872, 2873, 2874, 2875, 2876, 2877, 2878, 2879, 2880, 2881, 2882, 2883, 2884, 2885, 2886,
2887, 2888, 2889, 2890, 2891, 2892, 2893, 2894, 2895, 2896, 2897, 2898, 2899, 2900, 2901, 2902,
2903, 2904, 2905, 2906, 2907, 2908, 2909, 2910, 2911, 2912, 2913, 2914, 2915, 2916, 2917, 2918,
2919, 2920, 2921, 2922, 2923, 2924, 2925, 2926, 2927, 2928, 2929, 2930, 2931, 2932, 2933, 2934,
2935, 2936, 2937, 2938, 2939, 2940
*NSET, NSET=N_OBJ_34_BARRA
3977, 3978, 3979, 3980, 3981, 3982, 3983, 3984, 3985, 3986, 3987, 3988, 3989, 3990, 3991, 3992,
3993, 3994, 3995, 3996, 3997, 3998, 3999, 4000, 4001, 4002, 4003, 4004, 4005, 4006, 4007, 4008,
4009, 4010, 4011, 4012, 4013, 4014, 4015, 4016, 4017, 4018, 4019, 4020, 4021, 4022, 4023, 4024,
4025, 4026, 4027, 4028, 4029, 4030, 4031, 4032, 4033, 4034, 4035, 4036, 4037, 4038, 4039, 4040,
4041, 4042, 4043, 4044, 4045, 4046, 4047
*ELSET, ELSET=E_OBJ_34_BARRA
2941, 2942, 2943, 2944, 2945, 2946, 2947, 2948, 2949, 2950, 2951, 2952, 2953, 2954, 2955, 2956,
2957, 2958, 2959, 2960, 2961, 2962, 2963, 2964, 2965, 2966, 2967, 2968, 2969, 2970, 2971, 2972,
2973, 2974, 2975, 2976, 2977, 2978, 2979, 2980, 2981, 2982, 2983, 2984, 2985, 2986, 2987, 2988,
2989, 2990, 2991, 2992, 2993, 2994, 2995, 2996, 2997, 2998, 2999, 3000, 3001, 3002, 3003, 3004,
3005, 3006, 3007, 3008, 3009, 3010
*NSET, NSET=N_OBJ_35_BARRA
4048, 4049, 4050, 4051, 4052, 4053, 4054, 4055, 4056, 4057, 4058, 4059, 4060, 4061, 4062, 4063,
4064, 4065, 4066, 4067, 4068, 4069, 4070, 4071, 4072, 4073, 4074, 4075, 4076, 4077, 4078, 4079,
4080, 4081, 4082, 4083, 4084, 4085, 4086, 4087, 4088, 4089, 4090, 4091, 4092, 4093, 4094, 4095,
4096, 4097, 4098, 4099, 4100, 4101, 4102, 4103, 4104, 4105, 4106, 4107, 4108, 4109, 4110, 4111,
4112, 4113, 4114, 4115, 4116, 4117, 4118
*ELSET, ELSET=E_OBJ_35_BARRA
3011, 3012, 3013, 3014, 3015, 3016, 3017, 3018, 3019, 3020, 3021, 3022, 3023, 3024, 3025, 3026,
3027, 3028, 3029, 3030, 3031, 3032, 3033, 3034, 3035, 3036, 3037, 3038, 3039, 3040, 3041, 3042,
3043, 3044, 3045, 3046, 3047, 3048, 3049, 3050, 3051, 3052, 3053, 3054, 3055, 3056, 3057, 3058,
3059, 3060, 3061, 3062, 3063, 3064, 3065, 3066, 3067, 3068, 3069, 3070, 3071, 3072, 3073, 3074,
3075, 3076, 3077, 3078, 3079, 3080
*NSET, NSET=N_OBJ_36_STAFFA
4119, 4120, 4121, 4122, 4123, 4124, 4125, 4126, 4127, 4128, 4129, 4130, 4131, 4132, 4133, 4134,
4135, 4136, 4137, 4138, 4139, 4140
*ELSET, ELSET=E_OBJ_36_STAFFA
3081, 3082, 3083, 3084, 3085, 3086, 3087, 3088, 3089, 3090, 3091, 3092, 3093, 3094, 3095, 3096,
3097, 3098, 3099, 3100, 3101, 3102
*NSET, NSET=N_OBJ_37_STAFFA
4141, 4142, 4143, 4144, 4145, 4146, 4147, 4148, 4149, 4150, 4151, 4152, 4153, 4154, 4155, 4156,
4157, 4158, 4159, 4160, 4161, 4162
*ELSET, ELSET=E_OBJ_37_STAFFA
3103, 3104, 3105, 3106, 3107, 3108, 3109, 3110, 3111, 3112, 3113, 3114, 3115, 3116, 3117, 3118,
3119, 3120, 3121, 3122, 3123, 3124
*NSET, NSET=N_OBJ_38_STAFFA
4163, 4164, 4165, 4166, 4167, 4168, 4169, 4170, 4171, 4172, 4173, 4174, 4175, 4176, 4177, 4178,
4179, 4180, 4181, 4182, 4183, 4184
*ELSET, ELSET=E_OBJ_38_STAFFA
3125, 3126, 3127, 3128, 3129, 3130, 3131, 3132, 3133, 3134, 3135, 3136, 3137, 3138, 3139, 3140,
3141, 3142, 3143, 3144, 3145, 3146
*NSET, NSET=N_OBJ_39_STAFFA
4185, 4186, 4187, 4188, 4189, 4190, 4191, 4192, 4193, 4194, 4195, 4196, 4197, 4198, 4199, 4200,
4201, 4202, 4203, 4204, 4205, 4206
*ELSET, ELSET=E_OBJ_39_STAFFA
3147, 3148, 3149, 3150, 3151, 3152, 3153, 3154, 3155, 3156, 3157, 3158, 3159, 3160, 3161, 3162,
3163, 3164, 3165, 3166, 3167, 3168
*NSET, NSET=N_OBJ_40_STAFFA
4207, 4208, 4209, 4210, 4211, 4212, 4213, 4214, 4215, 4216, 4217, 4218, 4219, 4220, 4221, 4222,
4223, 4224, 4225, 4226, 4227, 4228
*ELSET, ELSET=E_OBJ_40_STAFFA
3169, 3170, 3171, 3172, 3173, 3174, 3175, 3176, 3177, 3178, 3179, 3180, 3181, 3182, 3183, 3184,
3185, 3186, 3187, 3188, 3189, 3190
*NSET, NSET=N_OBJ_41_STAFFA
4229, 4230, 4231, 4232, 4233, 4234, 4235, 4236, 4237, 4238, 4239, 4240, 4241, 4242, 4243, 4244,
4245, 4246, 4247, 4248, 4249, 4250
*ELSET, ELSET=E_OBJ_41_STAFFA
3191, 3192, 3193, 3194, 3195, 3196, 3197, 3198, 3199, 3200, 3201, 3202, 3203, 3204, 3205, 3206,
3207, 3208, 3209, 3210, 3211, 3212
*NSET, NSET=N_OBJ_42_STAFFA
4251, 4252, 4253, 4254, 4255, 4256, 4257, 4258, 4259, 4260, 4261, 4262, 4263, 4264, 4265, 4266,
4267, 4268, 4269, 4270, 4271, 4272
*ELSET, ELSET=E_OBJ_42_STAFFA
3213, 3214, 3215, 3216, 3217, 3218, 3219, 3220, 3221, 3222, 3223, 3224, 3225, 3226, 3227, 3228,
3229, 3230, 3231, 3232, 3233, 3234
*NSET, NSET=N_OBJ_43_STAFFA
4273, 4274, 4275, 4276, 4277, 4278, 4279, 4280, 4281, 4282, 4283, 4284, 4285, 4286, 4287, 4288,
4289, 4290, 4291, 4292, 4293, 4294
*ELSET, ELSET=E_OBJ_43_STAFFA
3235, 3236, 3237, 3238, 3239, 3240, 3241, 3242, 3243, 3244, 3245, 3246, 3247, 3248, 3249, 3250,
3251, 3252, 3253, 3254, 3255, 3256
*NSET, NSET=N_OBJ_44_STAFFA
4295, 4296, 4297, 4298, 4299, 4300, 4301, 4302, 4303, 4304, 4305, 4306, 4307, 4308, 4309, 4310,
4311, 4312, 4313, 4314, 4315, 4316
*ELSET, ELSET=E_OBJ_44_STAFFA
3257, 3258, 3259, 3260, 3261, 3262, 3263, 3264, 3265, 3266, 3267, 3268, 3269, 3270, 3271, 3272,
3273, 3274, 3275, 3276, 3277, 3278
*NSET, NSET=N_OBJ_45_STAFFA
4317, 4318, 4319, 4320, 4321, 4322, 4323, 4324, 4325, 4326, 4327, 4328, 4329, 4330, 4331, 4332,
4333, 4334, 4335, 4336, 4337, 4338
*ELSET, ELSET=E_OBJ_45_STAFFA
3279, 3280, 3281, 3282, 3283, 3284, 3285, 3286, 3287, 3288, 3289, 3290, 3291, 3292, 3293, 3294,
3295, 3296, 3297, 3298, 3299, 3300
*NSET, NSET=N_OBJ_46_STAFFA
4339, 4340, 4341, 4342, 4343, 4344, 4345, 4346, 4347, 4348, 4349, 4350, 4351, 4352, 4353, 4354,
4355, 4356, 4357, 4358, 4359, 4360
*ELSET, ELSET=E_OBJ_46_STAFFA
3301, 3302, 3303, 3304, 3305, 3306, 3307, 3308, 3309, 3310, 3311, 3312, 3313, 3314, 3315, 3316,
3317, 3318, 3319, 3320, 3321, 3322
*NSET, NSET=N_OBJ_47_STAFFA
4361, 4362, 4363, 4364, 4365, 4366, 4367, 4368, 4369, 4370, 4371, 4372, 4373, 4374, 4375, 4376,
4377, 4378, 4379, 4380, 4381, 4382
*ELSET, ELSET=E_OBJ_47_STAFFA
3323, 3324, 3325, 3326, 3327, 3328, 3329, 3330, 3331, 3332, 3333, 3334, 3335, 3336, 3337, 3338,
3339, 3340, 3341, 3342, 3343, 3344
*NSET, NSET=N_OBJ_48_STAFFA
4383, 4384, 4385, 4386, 4387, 4388, 4389, 4390, 4391, 4392, 4393, 4394, 4395, 4396, 4397, 4398,
4399, 4400, 4401, 4402, 4403, 4404
*ELSET, ELSET=E_OBJ_48_STAFFA
3345, 3346, 3347, 3348, 3349, 3350, 3351, 3352, 3353, 3354, 3355, 3356, 3357, 3358, 3359, 3360,
3361, 3362, 3363, 3364, 3365, 3366
*NSET, NSET=N_OBJ_49_STAFFA
4405, 4406, 4407, 4408, 4409, 4410, 4411, 4412, 4413, 4414, 4415, 4416, 4417, 4418, 4419, 4420,
4421, 4422, 4423, 4424, 4425, 4426
*ELSET, ELSET=E_OBJ_49_STAFFA
3367, 3368, 3369, 3370, 3371, 3372, 3373, 3374, 3375, 3376, 3377, 3378, 3379, 3380, 3381, 3382,
3383, 3384, 3385, 3386, 3387, 3388
*NSET, NSET=N_OBJ_50_STAFFA
4427, 4428, 4429, 4430, 4431, 4432, 4433, 4434, 4435, 4436, 4437, 4438, 4439, 4440, 4441, 4442,
4443, 4444, 4445, 4446, 4447, 4448
*ELSET, ELSET=E_OBJ_50_STAFFA
3389, 3390, 3391, 3392, 3393, 3394, 3395, 3396, 3397, 3398, 3399, 3400, 3401, 3402, 3403, 3404,
3405, 3406, 3407, 3408, 3409, 3410
*NSET, NSET=N_OBJ_51_STAFFA
4449, 4450, 4451, 4452, 4453, 4454, 4455, 4456, 4457, 4458, 4459, 4460, 4461, 4462, 4463, 4464,
4465, 4466, 4467, 4468, 4469, 4470
*ELSET, ELSET=E_OBJ_51_STAFFA
3411, 3412, 3413, 3414, 3415, 3416, 3417, 3418, 3419, 3420, 3421, 3422, 3423, 3424, 3425, 3426,
3427, 3428, 3429, 3430, 3431, 3432
*NSET, NSET=N_OBJ_52_STAFFA
4471, 4472, 4473, 4474, 4475, 4476, 4477, 4478, 4479, 4480, 4481, 4482, 4483, 4484, 4485, 4486,
4487, 4488, 4489, 4490, 4491, 4492
*ELSET, ELSET=E_OBJ_52_STAFFA
3433, 3434, 3435, 3436, 3437, 3438, 3439, 3440, 3441, 3442, 3443, 3444, 3445, 3446, 3447, 3448,
3449, 3450, 3451, 3452, 3453, 3454
**
*MATERIAL, NAME=MAT_C25_30
*ELASTIC
3.1476e+10, 0.2000
*DENSITY
2.5000e+03
**
*MATERIAL, NAME=MAT_B450C
*ELASTIC
2.0000e+11, 0.3000
*DENSITY
7.8500e+03
**
*MATERIAL, NAME=MAT_DEFAULT
*ELASTIC
3.0000e+10, 0.2000
*SOLID SECTION, ELSET=E_OBJ_31_CARPENTERIA, MATERIAL=MAT_C25_30

*SOLID SECTION, ELSET=E_OBJ_32_BARRA, MATERIAL=MAT_B450C
0.0001539380
*SOLID SECTION, ELSET=E_OBJ_33_BARRA, MATERIAL=MAT_B450C
0.0001539380
*SOLID SECTION, ELSET=E_OBJ_34_BARRA, MATERIAL=MAT_B450C
0.0001539380
*SOLID SECTION, ELSET=E_OBJ_35_BARRA, MATERIAL=MAT_B450C
0.0001539380
*SOLID SECTION, ELSET=E_OBJ_36_STAFFA, MATERIAL=MAT_B450C
0.0000502655
*SOLID SECTION, ELSET=E_OBJ_37_STAFFA, MATERIAL=MAT_B450C
0.0000502655
*SOLID SECTION, ELSET=E_OBJ_38_STAFFA, MATERIAL=MAT_B450C
0.0000502655
*SOLID SECTION, ELSET=E_OBJ_39_STAFFA, MATERIAL=MAT_B450C
0.0000502655
*SOLID SECTION, ELSET=E_OBJ_40_STAFFA, MATERIAL=MAT_B450C
0.0000502655
*SOLID SECTION, ELSET=E_OBJ_41_STAFFA, MATERIAL=MAT_B450C
0.0000502655
*SOLID SECTION, ELSET=E_OBJ_42_STAFFA, MATERIAL=MAT_B450C
0.0000502655
*SOLID SECTION, ELSET=E_OBJ_43_STAFFA, MATERIAL=MAT_B450C
0.0000502655
*SOLID SECTION, ELSET=E_OBJ_44_STAFFA, MATERIAL=MAT_B450C
0.0000502655
*SOLID SECTION, ELSET=E_OBJ_45_STAFFA, MATERIAL=MAT_B450C
0.0000502655
*SOLID SECTION, ELSET=E_OBJ_46_STAFFA, MATERIAL=MAT_B450C
0.0000502655
*SOLID SECTION, ELSET=E_OBJ_47_STAFFA, MATERIAL=MAT_B450C
0.0000502655
*SOLID SECTION, ELSET=E_OBJ_48_STAFFA, MATERIAL=MAT_B450C
0.0000502655
*SOLID SECTION, ELSET=E_OBJ_49_STAFFA, MATERIAL=MAT_B450C
0.0000502655
*SOLID SECTION, ELSET=E_OBJ_50_STAFFA, MATERIAL=MAT_B450C
0.0000502655
*SOLID SECTION, ELSET=E_OBJ_51_STAFFA, MATERIAL=MAT_B450C
0.0000502655
*SOLID SECTION, ELSET=E_OBJ_52_STAFFA, MATERIAL=MAT_B450C
0.0000502655
**
** ============================================
** STEP DI ANALISI
** ============================================
*STEP
*STATIC
**
*NODE FILE
U
*EL FILE
S, E
*END STEP
